2014-08-14 10:55:28,028  INFO Gbl:53 JVM: 1.7.0_65; Oracle Corporation; mixed mode; 64-bit
2014-08-14 10:55:28,028  INFO Gbl:57 OS: Windows 8.1; 6.3; amd64
2014-08-14 10:55:28,028  INFO Gbl:60 CPU cores: 2
2014-08-14 10:55:28,028  INFO Gbl:61 max. Memory: 2222.5MB (2330460160B)
2014-08-14 10:55:28,028  INFO Gbl:89 MATSim-Build: r${buildNumber} (${timestamp})
2014-08-14 10:55:28,028  INFO AbstractController:71 Used Controler-Class: org.matsim.core.controler.Controler
2014-08-14 10:55:28,043  INFO AbstractController:203 Complete config dump directly after reading/getting the config file.  See later for config dump after setup.
2014-08-14 10:55:28,059  INFO AbstractController:207 

<?xml version="1.0" encoding="UTF-8"?>
<!DOCTYPE config SYSTEM "http://www.matsim.org/files/dtd/config_v1.dtd">
<config>

<!-- ====================================================================== -->

	<module name="TimeAllocationMutator" >

		<!-- Defines how many seconds a time mutation can maximally shift a time. -->
		<param name="mutationRange" value="7200.0" />
	</module>

<!-- ====================================================================== -->

	<module name="controler" >
		<param name="enableLinkToLinkRouting" value="false" />

		<!-- Specifies the file format for writing events. Currently supported: txt, xml. Multiple values can be specified separated by commas (','). -->
		<param name="eventsFileFormat" value="xml" />

		<param name="firstIteration" value="0" />
		<param name="lastIteration" value="100" />

		<!-- Defines which mobility simulation will be used. Currently supported: queueSimulation qsim JDEQSim multimodalQSim 
Depending on the chosen mobsim, you'll have to add additional config modules to configure the corresponding mobsim.
For 'qsim', add a module 'qsim' to the config.
For 'queueSimulation', add a module 'simulation' to the config. -->
		<param name="mobsim" value="qsim" />

		<param name="outputDirectory" value="output01/" />

		<!-- The type of routing (least cost path) algorithm used, may have the values: Dijkstra, FastDijkstra, AStarLandmarks or FastAStarLandmarks -->
		<param name="routingAlgorithmType" value="Dijkstra" />

		<!-- An identifier for the current run which is used as prefix for output files and mentioned in output xml files etc. -->
		<param name="runId" value="null" />

		<!-- Comma-separated list of visualizer output file formats. `transims', `googleearth', and `otfvis'. -->
		<param name="snapshotFormat" value="" />

		<!-- iterationNumber % writeEventsInterval == 0 defines in which iterations events are written to a file. `0' disables events writing completely. -->
		<param name="writeEventsInterval" value="10" />

		<!-- iterationNumber % writePlansInterval == 0 defines (hopefully) in which iterations plans are written to a file. `0' disables plans writing completely.  Some plans in early iterations are always written -->
		<param name="writePlansInterval" value="10" />

		<!-- iterationNumber % writeSnapshotsInterval == 0 defines in which iterations snapshots are written to a file. `0' disables snapshots writing completely -->
		<param name="writeSnapshotsInterval" value="1" />
	</module>

<!-- ====================================================================== -->

	<module name="counts" >

		<!-- Specifies over how many iterations the link volumes should be averaged that are used for the counts comparison. Use 1 or 0 to only use the link volumes of a single iteration. This values cannot be larger than the value specified for writeCountsInterval -->
		<param name="averageCountsOverIterations" value="5" />

		<!-- factor by which to re-scale the simulated values.  necessary when simulation runs with something different from 100%.  needs to be adapted manually -->
		<param name="countsScaleFactor" value="100.0" />

		<!-- distance to distanceFilterCenterNode to include counting stations. The unit of distance is the Euclidean distance implied by the coordinate system -->
		<param name="distanceFilter" value="null" />

		<!-- node id for center node of distance filter -->
		<param name="distanceFilterCenterNode" value="null" />

		<!-- input file name to counts package -->
		<param name="inputCountsFile" value="input/counts.xml" />

		<!-- possible values: `html', `kml', `txt', `all' -->
		<param name="outputformat" value="kml" />

		<!-- Specifies how often the counts comparison should be calculated and written. -->
		<param name="writeCountsInterval" value="10" />
	</module>

<!-- ====================================================================== -->

	<module name="facilities" >
		<param name="inputFacilitiesFile" value="null" />
	</module>

<!-- ====================================================================== -->

	<module name="global" >
		<param name="coordinateSystem" value="EPSG:3006" />
		<param name="numberOfThreads" value="2" />
		<param name="randomSeed" value="4711" />
	</module>

<!-- ====================================================================== -->

	<module name="households" >
		<param name="inputFile" value="null" />
	</module>

<!-- ====================================================================== -->

	<module name="linkStats" >

		<!-- Specifies over how many iterations the link volumes should be averaged that are used for the link statistics. Use 1 or 0 to only use the link volumes of a single iteration. This values cannot be larger than the value specified for writeLinkStatsInterval -->
		<param name="averageLinkStatsOverIterations" value="5" />

		<!-- Specifies how often the link stats should be calculated and written. Use 0 to disable the generation of link stats. -->
		<param name="writeLinkStatsInterval" value="10" />
	</module>

<!-- ====================================================================== -->

	<module name="locationchoice" >
		<param name="algorithm" value="random" />
		<param name="analysisBinSize" value="20000.0" />
		<param name="analysisBoundary" value="200000.0" />
		<param name="centerNode" value="null" />
		<param name="destinationSamplePercent" value="100.0" />
		<param name="epsilonDistribution" value="gumbel" />
		<param name="epsilonScaleFactors" value="null" />
		<param name="fAttributesFileName" value="null" />
		<param name="fkValuesFile" value="null" />
		<param name="flexible_types" value="null" />
		<param name="idExclusion" value="2147483647" />
		<param name="maxDCScoreFile" value="null" />
		<param name="maxDistanceDCScore" value="-1.0" />
		<param name="maxRecursions" value="1" />
		<param name="pBetasFileName" value="null" />
		<param name="pkValuesFile" value="null" />
		<param name="planSelector" value="SelectExpBeta" />
		<param name="probChoiceSetSize" value="10" />
		<param name="radius" value="null" />
		<param name="randomSeed" value="221177" />
		<param name="recursionTravelSpeed" value="8.5" />
		<param name="recursionTravelSpeedChange" value="0.1" />
		<param name="restraintFcnExp" value="0.0" />
		<param name="restraintFcnFactor" value="0.0" />
		<param name="scaleFactor" value="1" />
		<param name="tt_approximationLevel" value="0" />
	</module>

<!-- ====================================================================== -->

	<module name="multimodal" >

		<!-- Use this, if your network is not multi modal. Links with free speeds that are lower than the specified cutoff value will be usable for walk and bike trips. -->
		<param name="createMultiModalNetwork" value="false" />

		<!-- Only used, if createMultiModalNetwork is enabled (set value in m/s). -->
		<param name="cuttoffValueForNonCarModes" value="22.22222222222222" />

		<param name="dropNonCarRoutes" value="false" />
		<param name="multiModalSimulationEnabled" value="false" />

		<!-- Use number of threads > 1 for parallel version using the specified number of threads. -->
		<param name="numberOfThreads" value="1" />

		<param name="simulatedModes" value="pt,walk,ride,bike" />
	</module>

<!-- ====================================================================== -->

	<module name="network" >
		<param name="inputChangeEventsFile" value="null" />
		<param name="inputNetworkFile" value="input/network_cleaned_simplified.xml" />
		<param name="laneDefinitionsFile" value="null" />
		<param name="timeVariantNetwork" value="false" />
	</module>

<!-- ====================================================================== -->

	<module name="otfvis" >

		<!-- The (initial) size of the agents.  Only a range of numbers is allowed, otherwise otfvis aborts rather ungracefully, or displays no agents at all. -->
		<param name="agentSize" value="120.0" />

		<!-- coloring scheme for otfvis.  Currently (2012) allowed values: standard bvg bvg2 byId gtfs -->
		<param name="coloringScheme" value="standard" />

		<!-- If non-moving items (e.g. agents at activities, at bus stops, etc.) should be showed.  May affect all non-moving items. -->
		<param name="drawNonMovingItems" value="false" />

		<param name="drawTransitFacilities" value="true" />
		<param name="drawTransitFacilityIds" value="true" />
		<param name="leftMouseFunc" value="Zoom" />

		<!-- The (initial) width of the links of the network. Use positive floating point values. -->
		<param name="linkWidth" value="30.0" />

		<!-- Link width is proportional to `numberOfLanes' or to `capacity'. -->
		<param name="linkwidthIsProportionalTo" value="numberOfLanes" />

		<!-- URL to get WMS tiles from. For a local GeoServer instance, use http://localhost:8080/geoserver/wms?service=WMS& -->
		<param name="mapBaseURL" value="" />

		<!-- The WMS layer to display. For GeoServer and a layer called clipped in workspace mz, use mz:clipped -->
		<param name="mapLayer" value="" />

		<!-- Render everything on top of map tiles. Default: From tiles.openstreetmap.org -->
		<param name="mapOverlayMode" value="false" />

		<param name="middleMouseFunc" value="Pan" />

		<!-- Shortens a link's start and end point in the visualization. -->
		<param name="nodeOffset" value="0.0" />

		<param name="rightMouseFunc" value="Select" />
		<param name="showTeleportation" value="false" />
	</module>

<!-- ====================================================================== -->

	<module name="parallelEventHandling" >

		<!-- estimated number of events during mobsim run, useful for configuration -->
		<param name="estimatedNumberOfEvents" value="null" />

		<!-- number of threads for parallel events handler.  0 or null means parallel events handler is disabled -->
		<param name="numberOfThreads" value="null" />
	</module>

<!-- ====================================================================== -->

	<module name="planCalcScore" >

		<!-- new_score = (1-learningRate)*old_score + learningRate * score_from_mobsim.  learning rates close to zero emulate score averaging, but slow down initial convergence -->
		<param name="learningRate" value="1.0" />

		<!-- logit model scale parameter. default: 2.  Has name and default value for historical reasons (see Bryan Raney's phd thesis).  Should be in strategyConfigGroup. -->
		<param name="BrainExpBeta" value="2.0" />

		<param name="PathSizeLogitBeta" value="1.0" />

		<!-- [utils/hr] utility for arriving late (i.e. after the latest start time).  normally negative -->
		<param name="lateArrival" value="-18.0" />

		<!-- [utils/hr] utility for departing early (i.e. before the earliest end time).  Probably implemented correctly, but not tested. -->
		<param name="earlyDeparture" value="-0.0" />

		<!-- [utils/hr] marginal utility of doing an activity.  normally positive.  also the opportunity cost of time if agent is doing nothing. -->
		<param name="performing" value="6.0" />

		<!-- [utils/hr] additional marginal utility of traveling by car.  normally negative.  this comes on top of the opportunity cost of time -->
		<param name="traveling" value="-6.0" />

		<!-- [utils/hr] additional marginal utility offset of traveling by pt.  normally negative.  this comes on top of the opportunity cost of time -->
		<param name="travelingPt" value="-6.0" />

		<!-- [utils/hr] additional marginal utility offset of traveling by foot.  normally negative.  this comes on top of the opportunity cost of time.  also see marginalUtlOfDistanceWalk -->
		<param name="travelingWalk" value="-6.0" />

		<param name="travelingOther" value="-6.0" />
		<param name="travelingBike" value="-6.0" />

		<!-- [utils/hr] utility offset for waiting.  this comes on top of the opportunity cost of time.  Probably implemented correctly, but not tested. -->
		<param name="waiting" value="-0.0" />

		<!-- [utils/hr] utility offset for waiting for a pt vehicle.  this comes on top of the opportunity cost of time. Default: if not set explicitly, it is equal to traveling_pt!!! -->
		<param name="waitingPt" value="-6.0" />

		<!-- [utils/m] utility of walking per m, normally negative.  this is on top of the time (dis)utility. -->
		<param name="marginalUtlOfDistanceWalk" value="0.0" />

		<param name="marginalUtlOfDistanceOther" value="0.0" />

		<!-- [utils/unit_of_money] conversion of money (e.g. toll, distance cost) into utils -->
		<param name="marginalUtilityOfMoney" value="1.0" />

		<!-- [unit_of_money/m] conversion of car distance into money. Probably needs to be negative to work. -->
		<param name="monetaryDistanceCostRateCar" value="0.0" />

		<!-- [unit_of_money/m] conversion of pt distance into money. Probably needs to be negative to work. -->
		<param name="monetaryDistanceCostRatePt" value="0.0" />

		<!-- [utils] utility of switching a line (= transfer penalty).  Normally negative -->
		<param name="utilityOfLineSwitch" value="-1.0" />

		<!-- [utils] alternative-specific constant for car.  no guarantee that this is used anywhere. default=0 to be backwards compatible for the time being -->
		<param name="constantCar" value="0.0" />

		<!-- [utils] alternative-specific constant for walk.  no guarantee that this is used anywhere. default=0 to be backwards compatible for the time being -->
		<param name="constantWalk" value="0.0" />

		<param name="constantOther" value="0.0" />

		<!-- [utils] alternative-specific constant for bike.  no guarantee that this is used anywhere. default=0 to be backwards compatible for the time being -->
		<param name="constantBike" value="0.0" />

		<!-- [utils] alternative-specific constant for pt.  no guarantee that this is used anywhere. default=0 to be backwards compatible for the time being -->
		<param name="constantPt" value="0.0" />

		<!-- write a plans file in each iteration directory which contains what each agent actually did, and the score it received. -->
		<param name="writeExperiencedPlans" value="false" />

		<!--  ============================  -->
		<param name="activityType_0" value="home" />

		<param name="activityPriority_0" value="1.0" />
		<param name="activityTypicalDuration_0" value="12:00:00" />
		<param name="activityMinimalDuration_0" value="undefined" />
		<param name="activityOpeningTime_0" value="undefined" />
		<param name="activityLatestStartTime_0" value="undefined" />
		<param name="activityEarliestEndTime_0" value="undefined" />
		<param name="activityClosingTime_0" value="undefined" />

		<!--  ============================  -->
		<param name="activityType_1" value="work" />

		<param name="activityPriority_1" value="1.0" />
		<param name="activityTypicalDuration_1" value="08:00:00" />
		<param name="activityMinimalDuration_1" value="undefined" />
		<param name="activityOpeningTime_1" value="05:00:00" />
		<param name="activityLatestStartTime_1" value="10:30:00" />
		<param name="activityEarliestEndTime_1" value="undefined" />
		<param name="activityClosingTime_1" value="20:00:00" />
	</module>

<!-- ====================================================================== -->

	<module name="plans" >

		<!-- Path to a file containing person attributes (required file format: ObjectAttributes). -->
		<param name="inputPersonAttributesFile" value="null" />

		<param name="inputPlansFile" value="input/plans.xml" />

		<!-- Defines how routes are stored in memory. Currently supported: LinkNetworkRoute, CompressedNetworkRoute. -->
		<param name="networkRouteType" value="LinkNetworkRoute" />
	</module>

<!-- ====================================================================== -->

	<module name="planscalcroute" >

		<!-- factor with which beeline distances (and therefore times) are multiplied in order to obtain an estimate of the network distances/times.  Default is something like 1.3 -->
		<param name="beelineDistanceFactor" value="1.3" />

		<!-- All the modes for which the router is supposed to generate network routes (like car) -->
		<param name="networkModes" value="car,ride" />

		<!-- Free-speed factor for a teleported mode based on freespeed: freespeedFactor * <freespeed car travel time>. Insert a line like this for every such mode. freespeedFactor wins over teleportedModeSpeed, if both are set (says michaz). -->
		<param name="teleportedModeFreespeedFactor_pt" value="2.0" />
	</module>

<!-- ====================================================================== -->

	<module name="ptCounts" >

		<!-- factor by which to re-scale the simulated values.  necessary when simulation runs with something different from 100%.  needs to be adapted manually -->
		<param name="countsScaleFactor" value="1.0" />

		<!-- distance to distanceFilterCenterNode to include counting stations. The unit of distance is the Euclidean distance implied by the coordinate system -->
		<param name="distanceFilter" value="null" />

		<!-- node id for center node of distance filter -->
		<param name="distanceFilterCenterNode" value="null" />

		<!-- input file containing the alighting (getting off) counts for pt -->
		<param name="inputAlightCountsFile" value="null" />

		<!-- input file containing the boarding (getting on) counts for pt -->
		<param name="inputBoardCountsFile" value="null" />

		<!-- input file containing the occupancy counts for pt -->
		<param name="inputOccupancyCountsFile" value="null" />

		<!-- possible values: `html', `kml', `txt', `all' -->
		<param name="outputformat" value="null" />

		<!-- every how many iterations (starting with 0) counts comparisons are generated -->
		<param name="ptCountsInterval" value="10" />
	</module>

<!-- ====================================================================== -->

	<module name="qsim" >
		<param name="endTime" value="24:00:00" />
		<param name="flowCapacityFactor" value="0.09" />

		<!-- decides if waiting vehicles enter the network after or before the already driving vehicles were moved. Default: false -->
		<param name="insertingWaitingVehiclesBeforeDrivingVehicles" value="false" />

		<!-- Defines which mode should be the qsim `main' (=congested) mode. Technically, this is the mode that the departure handler of the netsimengine handles.  Effective cell size, effective lane width, flow capacity factor, and storage capacity factor need to be set with diligence.  Needs to be a vehicular mode to make sense. -->
		<param name="mainMode" value="car" />

		<!-- Use number of threads > 1 for parallel version using the specified number of threads -->
		<param name="numberOfThreads" value="1" />

		<!-- Boolean. `true': stuck vehicles are removed, aborting the plan; `false': stuck vehicles are forced into the next link. `false' is probably the better choice. -->
		<param name="removeStuckVehicles" value="false" />

		<!-- `maxOfStarttimeAndEarliestActivityEnd' (default behavior) or `onlyUseStarttime' -->
		<param name="simStarttimeInterpretation" value="maxOfStarttimeAndEarliestActivityEnd" />

		<!-- snapshotStyle: `equiDist' (vehicles equidistant on link) or `queue' (vehicles queued at end of link) or `withHolesExperimental' (experimental!!) -->
		<param name="snapshotStyle" value="equiDist" />

		<param name="snapshotperiod" value="00:00:00" />
		<param name="startTime" value="00:00:00" />
		<param name="storageCapacityFactor" value="0.03" />

		<!-- time in seconds.  Time after which the frontmost vehicle on a link is called `stuck' if it does not move. -->
		<param name="stuckTime" value="10.0" />

		<param name="timeStepSize" value="00:00:01" />

		<!-- `queue' for the standard queue model, `withHolesExperimental' (experimental!!) for the queue model with holes -->
		<param name="trafficDynamics" value="queue" />

		<!-- Defines what happens if an agent wants to depart, but the specified vehicle is not available. One of: teleport, wait, exception -->
		<param name="vehicleBehavior" value="teleport" />
	</module>

<!-- ====================================================================== -->

	<module name="roadpricing" >
	</module>

<!-- ====================================================================== -->

	<module name="scenario" >

		<!-- Set this parameter to true if households should be used, false if not. -->
		<param name="useHouseholds" value="false" />

		<!-- Set this parameter to true if knowledge should be used, false if not. -->
		<param name="useKnowledge" value="true" />

		<!-- Set this parameter to true if lanes should be used, false if not. -->
		<param name="useLanes" value="false" />

		<!-- Set this parameter to true if roadpricing should be used, false if not. -->
		<param name="useRoadpricing" value="false" />

		<!-- Set this parameter to true if signal systems should be used, false if not. -->
		<param name="useSignalsystems" value="false" />

		<!-- Set this parameter to true if transit should be simulated, false if not. -->
		<param name="useTransit" value="false" />

		<!-- Set this parameter to true if vehicles should be used, false if not. -->
		<param name="useVehicles" value="false" />
	</module>

<!-- ====================================================================== -->

	<module name="signalsystems" >
		<param name="ambertimes" value="null" />
		<param name="intergreentimes" value="null" />
		<param name="signalcontrol" value="null" />
		<param name="signalgroups" value="null" />
		<param name="signalsystems" value="null" />
		<param name="useAmbertimes" value="false" />
		<param name="useIntergreentimes" value="false" />
	</module>

<!-- ====================================================================== -->

	<module name="strategy" >
		<param name="ExternalExeConfigTemplate" value="null" />
		<param name="ExternalExeTimeOut" value="3600" />
		<param name="ExternalExeTmpFileRootDir" value="null" />

		<!-- iteration after which module will be disabled.  most useful for ``innovative'' strategies (new routes, new times, ...) -->
		<param name="ModuleDisableAfterIteration_1" value="null" />

		<!-- iteration after which module will be disabled.  most useful for ``innovative'' strategies (new routes, new times, ...) -->
		<param name="ModuleDisableAfterIteration_2" value="80" />

		<!-- iteration after which module will be disabled.  most useful for ``innovative'' strategies (new routes, new times, ...) -->
		<param name="ModuleDisableAfterIteration_3" value="80" />

		<!-- path to external executable (if applicable) -->
		<param name="ModuleExePath_1" value="null" />

		<!-- path to external executable (if applicable) -->
		<param name="ModuleExePath_2" value="null" />

		<!-- path to external executable (if applicable) -->
		<param name="ModuleExePath_3" value="null" />

		<!-- probability that a strategy is applied to a given a person.  despite its name, this really is a ``weight'' -->
		<param name="ModuleProbability_1" value="0.8" />

		<!-- probability that a strategy is applied to a given a person.  despite its name, this really is a ``weight'' -->
		<param name="ModuleProbability_2" value="0.2" />

		<!-- probability that a strategy is applied to a given a person.  despite its name, this really is a ``weight'' -->
		<param name="ModuleProbability_3" value="0.2" />

		<!-- name of strategy (if not full class name, resolved in StrategyManagerConfigLoader) -->
		<param name="Module_1" value="ChangeExpBeta" />

		<!-- name of strategy (if not full class name, resolved in StrategyManagerConfigLoader) -->
		<param name="Module_2" value="ReRoute" />

		<!-- name of strategy (if not full class name, resolved in StrategyManagerConfigLoader) -->
		<param name="Module_3" value="TimeAllocationMutator" />

		<!-- maximum number of plans per agent.  ``0'' means ``infinity''.  Currently (2010), ``5'' is a good number -->
		<param name="maxAgentPlanMemorySize" value="5" />

		<!-- name of PlanSelector for plans removal.  If not full class name, resolved in StrategyManagerConfigLoader.  default is `null', which eventually calls SelectWorstPlan. This is not a good choice from a discrete choice theoretical perspective. Alternatives, however, have not been systematically tested. kai, feb'12 -->
		<param name="planSelectorForRemoval" value="null" />
	</module>

<!-- ====================================================================== -->

	<module name="subtourModeChoice" >

		<!-- Defines the chain-based modes, seperated by commas -->
		<param name="chainBasedModes" value="car,bike" />

		<!-- Defines whether car availability must be considered or not. A agent has no car only if it has no license, or never access to a car -->
		<param name="considerCarAvailability" value="false" />

		<!-- Defines all the modes available, including chain-based modes, seperated by commas -->
		<param name="modes" value="car,pt,bike,walk" />
	</module>

<!-- ====================================================================== -->

	<module name="transit" >

		<!-- Comma-separated list of transportation modes that are handled as transit. Defaults to 'pt'. -->
		<param name="transitModes" value="pt" />

		<!-- Input file containing the transit schedule to be simulated. -->
		<param name="transitScheduleFile" value="null" />

		<!-- Input file containing the vehicles used by the departures in the transit schedule. -->
		<param name="vehiclesFile" value="null" />
	</module>

<!-- ====================================================================== -->

	<module name="transitRouter" >

		<!-- additional time the router allocates when a line switch happens. Can be interpreted as a 'safety' time that agents need to safely transfer from one line to another -->
		<param name="additionalTransferTime" value="0.0" />

		<!-- step size to increase searchRadius if no stops are found -->
		<param name="extensionRadius" value="200.0" />

		<!-- maximum beeline distance between stops that agents could transfer to by walking -->
		<param name="maxBeelineWalkConnectionDistance" value="100.0" />

		<!-- the radius in which stop locations are searched, given a start or target coordinate -->
		<param name="searchRadius" value="1000.0" />
	</module>

<!-- ====================================================================== -->

	<module name="travelTimeCalculator" >

		<!-- Transport modes that will be respected by the travel time collector. 'car' is default, which includes also bussed from the pt simulation module. Use this parameter in combination with 'filterModes' = true! -->
		<param name="analyzedModes" value="car" />

		<param name="calculateLinkToLinkTravelTimes" value="false" />
		<param name="calculateLinkTravelTimes" value="true" />

		<!-- If true, link travel times from legs performed on modes not included in the 'analyzedModes' parameter are ignored. -->
		<param name="filterModes" value="false" />

		<!-- How to deal with congested time bins that have no link entry events. `optimistic' assumes free speed (too optimistic); 'experimental_LastMile' is experimental and probably too pessimistic. -->
		<param name="travelTimeAggregator" value="optimistic" />

		<!-- The size of the time bin (in sec) into which the link travel times are aggregated for the router -->
		<param name="travelTimeBinSize" value="900" />

		<param name="travelTimeCalculator" value="TravelTimeCalculatorArray" />

		<!-- How to deal with link entry times at different positions during the time bin. Currently supported: average, linearinterpolation -->
		<param name="travelTimeGetter" value="average" />
	</module>

<!-- ====================================================================== -->

	<module name="vspExperimental" >

		<!-- String: minOfDurationAndEndTime tryEndTimeThenDuration endTimeOnly. Anything besides minOfDurationAndEndTime will internally use a different (simpler) version of the TimeAllocationMutator. -->
		<param name="activityDurationInterpretation" value="minOfDurationAndEndTime" />

		<!-- REQUIRED: file with HBEFA 3.1 fleet average cold emission factors -->
		<param name="averageFleetColdEmissionFactorsFile" value="null" />

		<!-- REQUIRED: file with HBEFA 3.1 fleet average warm emission factors -->
		<param name="averageFleetWarmEmissionFactorsFile" value="null" />

		<!-- (do not use) set chainBasedModes for subTourModeChoice by Yu. E.g. "car,bike", "car" -->
		<param name="chainBasedModes" value="car" />

		<!-- OPTIONAL: file with HBEFA 3.1 detailed cold emission factors -->
		<param name="detailedColdEmissionFactorsFile" value="null" />

		<!-- OPTIONAL: file with HBEFA 3.1 detailed warm emission factors -->
		<param name="detailedWarmEmissionFactorsFile" value="null" />

		<!-- REQUIRED: mapping from input road types to HBEFA 3.1 road type strings -->
		<param name="emissionRoadTypeMappingFile" value="null" />

		<!-- definition of a vehicle for every person (who is allowed to choose a vehicle in the simulation):
 - REQUIRED: vehicle type Id must start with the respective HbefaVehicleCategory followed by `;'
 - OPTIONAL: if detailed emission calculation is switched on, vehicle type Id should aditionally contain HbefaVehicleAttributes (`Technology;SizeClasse;EmConcept'), corresponding to the strings in detailedWarmEmissionFactorsFile -->
		<param name="emissionVehicleFile" value="null" />

		<!-- (do not use) Set this filename of MZ05 daily analysis -->
		<param name="inputMZ05File" value="" />

		<!-- (do not use except of you have to) There was a problem with pt interaction scoring.  Some people solved it by overwriting the parameters of the pt interaction activity type.  Doing this now throws an Exception.  If you still insist on doing this, set the following to true. -->
		<param name="isAbleToOverwritePtInteractionParams" value="false" />

		<param name="isGeneratingBoardingDeniedEvent" value="false" />

		<!-- if an approximation of the opportunity cost of time is included into the radius calculation for location choice.`true' will be faster, but it is an approximation.  Default is `true'; `false' is available for backwards compatibility. -->
		<param name="isUsingOpportunityCostOfTimeForLocationChoice" value="true" />

		<param name="logitScaleParamForPlansRemoval" value="1." />

		<!-- changes MATSim's global time format used in output files. Can be used to enforce writing fractional seconds e.g. in output_plans.  default is `hh:mm:ss' (because of backwards compatibility). see Time.java for possible formats -->
		<param name="matsimGlobalTimeformat" value="HH:mm:ss" />

		<!-- (do not use) set the traffic mode option for subTourModeChoice by Yu -->
		<param name="modes" value="car, pt" />

		<!-- (not tested) will remove plan attributes that are presumably not used, such as activityStartTime. default=false -->
		<param name="removingUnnecessaryPlanAttributes" value="false" />

		<!-- first iteration of MSA score averaging. The matsim theory department suggests to use this together with switching of choice set innovation, but it has not been tested yet. -->
		<param name="scoreMSAStartsAtIteration" value="null" />

		<!-- if true then detailed emission factor files must be provided! -->
		<param name="usingDetailedEmissionCalculation" value="false" />

		<!-- indicates if, for routing, the opportunity cost of time should be added to the mode-specific marginal utilities of time.
		Default is true; false is possible only for backwards compatibility.
		This is only a suggestion since there is (by matsim design) no way to enforce that mental modules obey this. -->
		<param name="usingOpportunityCostOfTimeForPtRouting" value="true" />

		<!-- Options: `ignore', `warn', `abort'.  Default: either `ignore' or `warn'.
		When violating VSP defaults, this results in nothing, warnings, or aborts.  Members of VSP should use `abort' or talk to kai. -->
		<param name="vspDefaultsCheckingLevel" value="ignore" />

		<!-- if true then writes output_events in output directory.  default is `false'. Will only work when lastIteration is multiple of events writing interval -->
		<param name="writingOutputEvents" value="false" />
	</module>

<!-- ====================================================================== -->

</config>

2014-08-14 10:55:28,059  INFO AbstractController:208 Complete config dump done.
2014-08-14 10:55:28,059  INFO AbstractController:209 Checking consistency of config...
2014-08-14 10:55:28,059  INFO AbstractController:211 Checking consistency of config done.
2014-08-14 10:55:28,106  INFO SnapshotWriterRegistrar:41 OTFVis snapshots will not be supported, as OTFVis is not part of the classpath.
2014-08-14 10:55:28,137  WARN OutputDirectoryHierarchy:164 ###########################################################
2014-08-14 10:55:28,137  WARN OutputDirectoryHierarchy:165 ### THE CONTROLER WILL OVERWRITE FILES IN:
2014-08-14 10:55:28,137  WARN OutputDirectoryHierarchy:166 ### output01
2014-08-14 10:55:28,137  WARN OutputDirectoryHierarchy:167 ###########################################################
2014-08-14 10:55:28,137  INFO ScenarioLoaderImpl:135 loading scenario from base directory: D:\Uni\Matsim\MatsimHA2\
2014-08-14 10:55:28,137  INFO ScenarioLoaderImpl:169 loading network from input/network_cleaned_simplified.xml
2014-08-14 10:55:28,153  INFO MatsimNetworkReader:83 using network_v1-reader.
2014-08-14 10:55:28,153  INFO MatsimXmlParser:215 Trying to load http://www.matsim.org/files/dtd/network_v1.dtd. In some cases (e.g. network interface up but no connection), this may take a bit.
2014-08-14 10:55:31,918  INFO ScenarioLoaderImpl:207 no facilities file set in config, therefore not loading any facilities.  This is not a problem except if you are using facilities
2014-08-14 10:55:31,918  INFO ScenarioLoaderImpl:220 loading population from input/plans.xml
2014-08-14 10:55:31,933  INFO MatsimPopulationReader:86 using population_v5-reader.
2014-08-14 10:55:31,933  INFO MatsimXmlParser:215 Trying to load http://www.matsim.org/files/dtd/population_v5.dtd. In some cases (e.g. network interface up but no connection), this may take a bit.
2014-08-14 10:55:31,980  INFO PopulationImpl:181  person # 1
2014-08-14 10:55:31,980  INFO PopulationImpl:181  person # 2
2014-08-14 10:55:31,980  INFO PopulationImpl:181  person # 4
2014-08-14 10:55:31,980  INFO PopulationImpl:181  person # 8
2014-08-14 10:55:31,996  INFO PopulationImpl:181  person # 16
2014-08-14 10:55:32,011  INFO PopulationImpl:181  person # 32
2014-08-14 10:55:32,152  INFO PopulationImpl:181  person # 64
2014-08-14 10:55:32,246  INFO PopulationImpl:181  person # 128
2014-08-14 10:55:32,318  INFO PopulationImpl:181  person # 256
2014-08-14 10:55:32,415  INFO PopulationImpl:181  person # 512
2014-08-14 10:55:32,489  INFO PopulationImpl:181  person # 1024
2014-08-14 10:55:32,621  INFO PopulationImpl:181  person # 2048
2014-08-14 10:55:32,779  INFO PopulationImpl:181  person # 4096
2014-08-14 10:55:32,998  INFO PopulationImpl:181  person # 8192
2014-08-14 10:55:33,436  INFO PopulationImpl:181  person # 16384
2014-08-14 10:55:33,561  INFO PopulationImpl:181  person # 18846
2014-08-14 10:55:33,561  INFO ScenarioLoaderImpl:236 no person-attributes file set in config, not loading any person attributes
2014-08-14 10:55:33,576  INFO CalcLinkStats:128  resetting `count' to zero.  This info is here since we want to check when this is happening during normal simulation runs.  kai, jan'11
2014-08-14 10:55:34,045  INFO EventsManagerImpl:160 adding Event-Handler: org.matsim.analysis.VolumesAnalyzer
2014-08-14 10:55:34,045  INFO EventsManagerImpl:164   org.matsim.core.api.experimental.events.handler.LinkLeaveEventHandler
2014-08-14 10:55:34,061  INFO EventsManagerImpl:241     > org.matsim.core.api.experimental.events.LinkLeaveEvent
2014-08-14 10:55:34,061  INFO EventsManagerImpl:172 
2014-08-14 10:55:34,061  INFO EventsManagerImpl:160 adding Event-Handler: org.matsim.analysis.CalcLegTimes
2014-08-14 10:55:34,061  INFO EventsManagerImpl:164   org.matsim.core.api.experimental.events.handler.AgentDepartureEventHandler
2014-08-14 10:55:34,061  INFO EventsManagerImpl:241     > org.matsim.core.api.experimental.events.AgentDepartureEvent
2014-08-14 10:55:34,061  INFO EventsManagerImpl:164   org.matsim.core.api.experimental.events.handler.AgentArrivalEventHandler
2014-08-14 10:55:34,061  INFO EventsManagerImpl:241     > org.matsim.core.api.experimental.events.AgentArrivalEvent
2014-08-14 10:55:34,061  INFO EventsManagerImpl:164   org.matsim.core.api.experimental.events.handler.ActivityEndEventHandler
2014-08-14 10:55:34,061  INFO EventsManagerImpl:241     > org.matsim.core.api.experimental.events.ActivityEndEvent
2014-08-14 10:55:34,061  INFO EventsManagerImpl:164   org.matsim.core.api.experimental.events.handler.ActivityStartEventHandler
2014-08-14 10:55:34,061  INFO EventsManagerImpl:241     > org.matsim.core.api.experimental.events.ActivityStartEvent
2014-08-14 10:55:34,061  INFO EventsManagerImpl:172 
2014-08-14 10:55:34,108  INFO EventsManagerImpl:160 adding Event-Handler: org.matsim.analysis.LegHistogram
2014-08-14 10:55:34,108  INFO EventsManagerImpl:164   org.matsim.core.api.experimental.events.handler.AgentDepartureEventHandler
2014-08-14 10:55:34,108  INFO EventsManagerImpl:241     > org.matsim.core.api.experimental.events.AgentDepartureEvent
2014-08-14 10:55:34,108  INFO EventsManagerImpl:164   org.matsim.core.api.experimental.events.handler.AgentArrivalEventHandler
2014-08-14 10:55:34,108  INFO EventsManagerImpl:241     > org.matsim.core.api.experimental.events.AgentArrivalEvent
2014-08-14 10:55:34,108  INFO EventsManagerImpl:164   org.matsim.core.api.experimental.events.handler.AgentStuckEventHandler
2014-08-14 10:55:34,108  INFO EventsManagerImpl:241     > org.matsim.core.api.experimental.events.AgentStuckEvent
2014-08-14 10:55:34,108  INFO EventsManagerImpl:172 
2014-08-14 10:55:34,108  INFO ControlerListenerManager:124 calling notifyStartup on org.matsim.counts.CountControlerListener
2014-08-14 10:55:34,123  INFO MatsimCountsReader:77 using counts_v1-reader.
2014-08-14 10:55:34,123  INFO MatsimXmlParser:215 Trying to load http://matsim.org/files/dtd/counts_v1.xsd. In some cases (e.g. network interface up but no connection), this may take a bit.
2014-08-14 10:55:34,436  INFO ControlerListenerManager:124 calling notifyStartup on org.matsim.analysis.TravelDistanceStats
2014-08-14 10:55:34,436  INFO ControlerListenerManager:124 calling notifyStartup on org.matsim.analysis.ScoreStats
2014-08-14 10:55:34,436  INFO ControlerListenerManager:128 all ControlerStartupListeners called.
2014-08-14 10:55:34,436  INFO AbstractController:203 config dump before iterations start
2014-08-14 10:55:34,451  INFO AbstractController:207 

<?xml version="1.0" encoding="UTF-8"?>
<!DOCTYPE config SYSTEM "http://www.matsim.org/files/dtd/config_v1.dtd">
<config>

<!-- ====================================================================== -->

	<module name="TimeAllocationMutator" >

		<!-- Defines how many seconds a time mutation can maximally shift a time. -->
		<param name="mutationRange" value="7200.0" />
	</module>

<!-- ====================================================================== -->

	<module name="controler" >
		<param name="enableLinkToLinkRouting" value="false" />

		<!-- Specifies the file format for writing events. Currently supported: txt, xml. Multiple values can be specified separated by commas (','). -->
		<param name="eventsFileFormat" value="xml" />

		<param name="firstIteration" value="0" />
		<param name="lastIteration" value="100" />

		<!-- Defines which mobility simulation will be used. Currently supported: queueSimulation qsim JDEQSim multimodalQSim 
Depending on the chosen mobsim, you'll have to add additional config modules to configure the corresponding mobsim.
For 'qsim', add a module 'qsim' to the config.
For 'queueSimulation', add a module 'simulation' to the config. -->
		<param name="mobsim" value="qsim" />

		<param name="outputDirectory" value="output01/" />

		<!-- The type of routing (least cost path) algorithm used, may have the values: Dijkstra, FastDijkstra, AStarLandmarks or FastAStarLandmarks -->
		<param name="routingAlgorithmType" value="Dijkstra" />

		<!-- An identifier for the current run which is used as prefix for output files and mentioned in output xml files etc. -->
		<param name="runId" value="null" />

		<!-- Comma-separated list of visualizer output file formats. `transims', `googleearth', and `otfvis'. -->
		<param name="snapshotFormat" value="" />

		<!-- iterationNumber % writeEventsInterval == 0 defines in which iterations events are written to a file. `0' disables events writing completely. -->
		<param name="writeEventsInterval" value="10" />

		<!-- iterationNumber % writePlansInterval == 0 defines (hopefully) in which iterations plans are written to a file. `0' disables plans writing completely.  Some plans in early iterations are always written -->
		<param name="writePlansInterval" value="10" />

		<!-- iterationNumber % writeSnapshotsInterval == 0 defines in which iterations snapshots are written to a file. `0' disables snapshots writing completely -->
		<param name="writeSnapshotsInterval" value="1" />
	</module>

<!-- ====================================================================== -->

	<module name="counts" >

		<!-- Specifies over how many iterations the link volumes should be averaged that are used for the counts comparison. Use 1 or 0 to only use the link volumes of a single iteration. This values cannot be larger than the value specified for writeCountsInterval -->
		<param name="averageCountsOverIterations" value="5" />

		<!-- factor by which to re-scale the simulated values.  necessary when simulation runs with something different from 100%.  needs to be adapted manually -->
		<param name="countsScaleFactor" value="100.0" />

		<!-- distance to distanceFilterCenterNode to include counting stations. The unit of distance is the Euclidean distance implied by the coordinate system -->
		<param name="distanceFilter" value="null" />

		<!-- node id for center node of distance filter -->
		<param name="distanceFilterCenterNode" value="null" />

		<!-- input file name to counts package -->
		<param name="inputCountsFile" value="input/counts.xml" />

		<!-- possible values: `html', `kml', `txt', `all' -->
		<param name="outputformat" value="kml" />

		<!-- Specifies how often the counts comparison should be calculated and written. -->
		<param name="writeCountsInterval" value="10" />
	</module>

<!-- ====================================================================== -->

	<module name="facilities" >
		<param name="inputFacilitiesFile" value="null" />
	</module>

<!-- ====================================================================== -->

	<module name="global" >
		<param name="coordinateSystem" value="EPSG:3006" />
		<param name="numberOfThreads" value="2" />
		<param name="randomSeed" value="4711" />
	</module>

<!-- ====================================================================== -->

	<module name="households" >
		<param name="inputFile" value="null" />
	</module>

<!-- ====================================================================== -->

	<module name="linkStats" >

		<!-- Specifies over how many iterations the link volumes should be averaged that are used for the link statistics. Use 1 or 0 to only use the link volumes of a single iteration. This values cannot be larger than the value specified for writeLinkStatsInterval -->
		<param name="averageLinkStatsOverIterations" value="5" />

		<!-- Specifies how often the link stats should be calculated and written. Use 0 to disable the generation of link stats. -->
		<param name="writeLinkStatsInterval" value="10" />
	</module>

<!-- ====================================================================== -->

	<module name="locationchoice" >
		<param name="algorithm" value="random" />
		<param name="analysisBinSize" value="20000.0" />
		<param name="analysisBoundary" value="200000.0" />
		<param name="centerNode" value="null" />
		<param name="destinationSamplePercent" value="100.0" />
		<param name="epsilonDistribution" value="gumbel" />
		<param name="epsilonScaleFactors" value="null" />
		<param name="fAttributesFileName" value="null" />
		<param name="fkValuesFile" value="null" />
		<param name="flexible_types" value="null" />
		<param name="idExclusion" value="2147483647" />
		<param name="maxDCScoreFile" value="null" />
		<param name="maxDistanceDCScore" value="-1.0" />
		<param name="maxRecursions" value="1" />
		<param name="pBetasFileName" value="null" />
		<param name="pkValuesFile" value="null" />
		<param name="planSelector" value="SelectExpBeta" />
		<param name="probChoiceSetSize" value="10" />
		<param name="radius" value="null" />
		<param name="randomSeed" value="221177" />
		<param name="recursionTravelSpeed" value="8.5" />
		<param name="recursionTravelSpeedChange" value="0.1" />
		<param name="restraintFcnExp" value="0.0" />
		<param name="restraintFcnFactor" value="0.0" />
		<param name="scaleFactor" value="1" />
		<param name="tt_approximationLevel" value="0" />
	</module>

<!-- ====================================================================== -->

	<module name="multimodal" >

		<!-- Use this, if your network is not multi modal. Links with free speeds that are lower than the specified cutoff value will be usable for walk and bike trips. -->
		<param name="createMultiModalNetwork" value="false" />

		<!-- Only used, if createMultiModalNetwork is enabled (set value in m/s). -->
		<param name="cuttoffValueForNonCarModes" value="22.22222222222222" />

		<param name="dropNonCarRoutes" value="false" />
		<param name="multiModalSimulationEnabled" value="false" />

		<!-- Use number of threads > 1 for parallel version using the specified number of threads. -->
		<param name="numberOfThreads" value="1" />

		<param name="simulatedModes" value="pt,walk,ride,bike" />
	</module>

<!-- ====================================================================== -->

	<module name="network" >
		<param name="inputChangeEventsFile" value="null" />
		<param name="inputNetworkFile" value="input/network_cleaned_simplified.xml" />
		<param name="laneDefinitionsFile" value="null" />
		<param name="timeVariantNetwork" value="false" />
	</module>

<!-- ====================================================================== -->

	<module name="otfvis" >

		<!-- The (initial) size of the agents.  Only a range of numbers is allowed, otherwise otfvis aborts rather ungracefully, or displays no agents at all. -->
		<param name="agentSize" value="120.0" />

		<!-- coloring scheme for otfvis.  Currently (2012) allowed values: standard bvg bvg2 byId gtfs -->
		<param name="coloringScheme" value="standard" />

		<!-- If non-moving items (e.g. agents at activities, at bus stops, etc.) should be showed.  May affect all non-moving items. -->
		<param name="drawNonMovingItems" value="false" />

		<param name="drawTransitFacilities" value="true" />
		<param name="drawTransitFacilityIds" value="true" />
		<param name="leftMouseFunc" value="Zoom" />

		<!-- The (initial) width of the links of the network. Use positive floating point values. -->
		<param name="linkWidth" value="30.0" />

		<!-- Link width is proportional to `numberOfLanes' or to `capacity'. -->
		<param name="linkwidthIsProportionalTo" value="numberOfLanes" />

		<!-- URL to get WMS tiles from. For a local GeoServer instance, use http://localhost:8080/geoserver/wms?service=WMS& -->
		<param name="mapBaseURL" value="" />

		<!-- The WMS layer to display. For GeoServer and a layer called clipped in workspace mz, use mz:clipped -->
		<param name="mapLayer" value="" />

		<!-- Render everything on top of map tiles. Default: From tiles.openstreetmap.org -->
		<param name="mapOverlayMode" value="false" />

		<param name="middleMouseFunc" value="Pan" />

		<!-- Shortens a link's start and end point in the visualization. -->
		<param name="nodeOffset" value="0.0" />

		<param name="rightMouseFunc" value="Select" />
		<param name="showTeleportation" value="false" />
	</module>

<!-- ====================================================================== -->

	<module name="parallelEventHandling" >

		<!-- estimated number of events during mobsim run, useful for configuration -->
		<param name="estimatedNumberOfEvents" value="null" />

		<!-- number of threads for parallel events handler.  0 or null means parallel events handler is disabled -->
		<param name="numberOfThreads" value="null" />
	</module>

<!-- ====================================================================== -->

	<module name="planCalcScore" >

		<!-- new_score = (1-learningRate)*old_score + learningRate * score_from_mobsim.  learning rates close to zero emulate score averaging, but slow down initial convergence -->
		<param name="learningRate" value="1.0" />

		<!-- logit model scale parameter. default: 2.  Has name and default value for historical reasons (see Bryan Raney's phd thesis).  Should be in strategyConfigGroup. -->
		<param name="BrainExpBeta" value="2.0" />

		<param name="PathSizeLogitBeta" value="1.0" />

		<!-- [utils/hr] utility for arriving late (i.e. after the latest start time).  normally negative -->
		<param name="lateArrival" value="-18.0" />

		<!-- [utils/hr] utility for departing early (i.e. before the earliest end time).  Probably implemented correctly, but not tested. -->
		<param name="earlyDeparture" value="-0.0" />

		<!-- [utils/hr] marginal utility of doing an activity.  normally positive.  also the opportunity cost of time if agent is doing nothing. -->
		<param name="performing" value="6.0" />

		<!-- [utils/hr] additional marginal utility of traveling by car.  normally negative.  this comes on top of the opportunity cost of time -->
		<param name="traveling" value="-6.0" />

		<!-- [utils/hr] additional marginal utility offset of traveling by pt.  normally negative.  this comes on top of the opportunity cost of time -->
		<param name="travelingPt" value="-6.0" />

		<!-- [utils/hr] additional marginal utility offset of traveling by foot.  normally negative.  this comes on top of the opportunity cost of time.  also see marginalUtlOfDistanceWalk -->
		<param name="travelingWalk" value="-6.0" />

		<param name="travelingOther" value="-6.0" />
		<param name="travelingBike" value="-6.0" />

		<!-- [utils/hr] utility offset for waiting.  this comes on top of the opportunity cost of time.  Probably implemented correctly, but not tested. -->
		<param name="waiting" value="-0.0" />

		<!-- [utils/hr] utility offset for waiting for a pt vehicle.  this comes on top of the opportunity cost of time. Default: if not set explicitly, it is equal to traveling_pt!!! -->
		<param name="waitingPt" value="-6.0" />

		<!-- [utils/m] utility of walking per m, normally negative.  this is on top of the time (dis)utility. -->
		<param name="marginalUtlOfDistanceWalk" value="0.0" />

		<param name="marginalUtlOfDistanceOther" value="0.0" />

		<!-- [utils/unit_of_money] conversion of money (e.g. toll, distance cost) into utils -->
		<param name="marginalUtilityOfMoney" value="1.0" />

		<!-- [unit_of_money/m] conversion of car distance into money. Probably needs to be negative to work. -->
		<param name="monetaryDistanceCostRateCar" value="0.0" />

		<!-- [unit_of_money/m] conversion of pt distance into money. Probably needs to be negative to work. -->
		<param name="monetaryDistanceCostRatePt" value="0.0" />

		<!-- [utils] utility of switching a line (= transfer penalty).  Normally negative -->
		<param name="utilityOfLineSwitch" value="-1.0" />

		<!-- [utils] alternative-specific constant for car.  no guarantee that this is used anywhere. default=0 to be backwards compatible for the time being -->
		<param name="constantCar" value="0.0" />

		<!-- [utils] alternative-specific constant for walk.  no guarantee that this is used anywhere. default=0 to be backwards compatible for the time being -->
		<param name="constantWalk" value="0.0" />

		<param name="constantOther" value="0.0" />

		<!-- [utils] alternative-specific constant for bike.  no guarantee that this is used anywhere. default=0 to be backwards compatible for the time being -->
		<param name="constantBike" value="0.0" />

		<!-- [utils] alternative-specific constant for pt.  no guarantee that this is used anywhere. default=0 to be backwards compatible for the time being -->
		<param name="constantPt" value="0.0" />

		<!-- write a plans file in each iteration directory which contains what each agent actually did, and the score it received. -->
		<param name="writeExperiencedPlans" value="false" />

		<!--  ============================  -->
		<param name="activityType_0" value="home" />

		<param name="activityPriority_0" value="1.0" />
		<param name="activityTypicalDuration_0" value="12:00:00" />
		<param name="activityMinimalDuration_0" value="undefined" />
		<param name="activityOpeningTime_0" value="undefined" />
		<param name="activityLatestStartTime_0" value="undefined" />
		<param name="activityEarliestEndTime_0" value="undefined" />
		<param name="activityClosingTime_0" value="undefined" />

		<!--  ============================  -->
		<param name="activityType_1" value="work" />

		<param name="activityPriority_1" value="1.0" />
		<param name="activityTypicalDuration_1" value="08:00:00" />
		<param name="activityMinimalDuration_1" value="undefined" />
		<param name="activityOpeningTime_1" value="05:00:00" />
		<param name="activityLatestStartTime_1" value="10:30:00" />
		<param name="activityEarliestEndTime_1" value="undefined" />
		<param name="activityClosingTime_1" value="20:00:00" />
	</module>

<!-- ====================================================================== -->

	<module name="plans" >

		<!-- Path to a file containing person attributes (required file format: ObjectAttributes). -->
		<param name="inputPersonAttributesFile" value="null" />

		<param name="inputPlansFile" value="input/plans.xml" />

		<!-- Defines how routes are stored in memory. Currently supported: LinkNetworkRoute, CompressedNetworkRoute. -->
		<param name="networkRouteType" value="LinkNetworkRoute" />
	</module>

<!-- ====================================================================== -->

	<module name="planscalcroute" >

		<!-- factor with which beeline distances (and therefore times) are multiplied in order to obtain an estimate of the network distances/times.  Default is something like 1.3 -->
		<param name="beelineDistanceFactor" value="1.3" />

		<!-- All the modes for which the router is supposed to generate network routes (like car) -->
		<param name="networkModes" value="car,ride" />

		<!-- Free-speed factor for a teleported mode based on freespeed: freespeedFactor * <freespeed car travel time>. Insert a line like this for every such mode. freespeedFactor wins over teleportedModeSpeed, if both are set (says michaz). -->
		<param name="teleportedModeFreespeedFactor_pt" value="2.0" />
	</module>

<!-- ====================================================================== -->

	<module name="ptCounts" >

		<!-- factor by which to re-scale the simulated values.  necessary when simulation runs with something different from 100%.  needs to be adapted manually -->
		<param name="countsScaleFactor" value="1.0" />

		<!-- distance to distanceFilterCenterNode to include counting stations. The unit of distance is the Euclidean distance implied by the coordinate system -->
		<param name="distanceFilter" value="null" />

		<!-- node id for center node of distance filter -->
		<param name="distanceFilterCenterNode" value="null" />

		<!-- input file containing the alighting (getting off) counts for pt -->
		<param name="inputAlightCountsFile" value="null" />

		<!-- input file containing the boarding (getting on) counts for pt -->
		<param name="inputBoardCountsFile" value="null" />

		<!-- input file containing the occupancy counts for pt -->
		<param name="inputOccupancyCountsFile" value="null" />

		<!-- possible values: `html', `kml', `txt', `all' -->
		<param name="outputformat" value="null" />

		<!-- every how many iterations (starting with 0) counts comparisons are generated -->
		<param name="ptCountsInterval" value="10" />
	</module>

<!-- ====================================================================== -->

	<module name="qsim" >
		<param name="endTime" value="24:00:00" />
		<param name="flowCapacityFactor" value="0.09" />

		<!-- decides if waiting vehicles enter the network after or before the already driving vehicles were moved. Default: false -->
		<param name="insertingWaitingVehiclesBeforeDrivingVehicles" value="false" />

		<!-- Defines which mode should be the qsim `main' (=congested) mode. Technically, this is the mode that the departure handler of the netsimengine handles.  Effective cell size, effective lane width, flow capacity factor, and storage capacity factor need to be set with diligence.  Needs to be a vehicular mode to make sense. -->
		<param name="mainMode" value="car" />

		<!-- Use number of threads > 1 for parallel version using the specified number of threads -->
		<param name="numberOfThreads" value="1" />

		<!-- Boolean. `true': stuck vehicles are removed, aborting the plan; `false': stuck vehicles are forced into the next link. `false' is probably the better choice. -->
		<param name="removeStuckVehicles" value="false" />

		<!-- `maxOfStarttimeAndEarliestActivityEnd' (default behavior) or `onlyUseStarttime' -->
		<param name="simStarttimeInterpretation" value="maxOfStarttimeAndEarliestActivityEnd" />

		<!-- snapshotStyle: `equiDist' (vehicles equidistant on link) or `queue' (vehicles queued at end of link) or `withHolesExperimental' (experimental!!) -->
		<param name="snapshotStyle" value="equiDist" />

		<param name="snapshotperiod" value="00:00:00" />
		<param name="startTime" value="00:00:00" />
		<param name="storageCapacityFactor" value="0.03" />

		<!-- time in seconds.  Time after which the frontmost vehicle on a link is called `stuck' if it does not move. -->
		<param name="stuckTime" value="10.0" />

		<param name="timeStepSize" value="00:00:01" />

		<!-- `queue' for the standard queue model, `withHolesExperimental' (experimental!!) for the queue model with holes -->
		<param name="trafficDynamics" value="queue" />

		<!-- Defines what happens if an agent wants to depart, but the specified vehicle is not available. One of: teleport, wait, exception -->
		<param name="vehicleBehavior" value="teleport" />
	</module>

<!-- ====================================================================== -->

	<module name="roadpricing" >
	</module>

<!-- ====================================================================== -->

	<module name="scenario" >

		<!-- Set this parameter to true if households should be used, false if not. -->
		<param name="useHouseholds" value="false" />

		<!-- Set this parameter to true if knowledge should be used, false if not. -->
		<param name="useKnowledge" value="true" />

		<!-- Set this parameter to true if lanes should be used, false if not. -->
		<param name="useLanes" value="false" />

		<!-- Set this parameter to true if roadpricing should be used, false if not. -->
		<param name="useRoadpricing" value="false" />

		<!-- Set this parameter to true if signal systems should be used, false if not. -->
		<param name="useSignalsystems" value="false" />

		<!-- Set this parameter to true if transit should be simulated, false if not. -->
		<param name="useTransit" value="false" />

		<!-- Set this parameter to true if vehicles should be used, false if not. -->
		<param name="useVehicles" value="false" />
	</module>

<!-- ====================================================================== -->

	<module name="signalsystems" >
		<param name="ambertimes" value="null" />
		<param name="intergreentimes" value="null" />
		<param name="signalcontrol" value="null" />
		<param name="signalgroups" value="null" />
		<param name="signalsystems" value="null" />
		<param name="useAmbertimes" value="false" />
		<param name="useIntergreentimes" value="false" />
	</module>

<!-- ====================================================================== -->

	<module name="strategy" >
		<param name="ExternalExeConfigTemplate" value="null" />
		<param name="ExternalExeTimeOut" value="3600" />
		<param name="ExternalExeTmpFileRootDir" value="null" />

		<!-- iteration after which module will be disabled.  most useful for ``innovative'' strategies (new routes, new times, ...) -->
		<param name="ModuleDisableAfterIteration_1" value="null" />

		<!-- iteration after which module will be disabled.  most useful for ``innovative'' strategies (new routes, new times, ...) -->
		<param name="ModuleDisableAfterIteration_2" value="80" />

		<!-- iteration after which module will be disabled.  most useful for ``innovative'' strategies (new routes, new times, ...) -->
		<param name="ModuleDisableAfterIteration_3" value="80" />

		<!-- path to external executable (if applicable) -->
		<param name="ModuleExePath_1" value="null" />

		<!-- path to external executable (if applicable) -->
		<param name="ModuleExePath_2" value="null" />

		<!-- path to external executable (if applicable) -->
		<param name="ModuleExePath_3" value="null" />

		<!-- probability that a strategy is applied to a given a person.  despite its name, this really is a ``weight'' -->
		<param name="ModuleProbability_1" value="0.8" />

		<!-- probability that a strategy is applied to a given a person.  despite its name, this really is a ``weight'' -->
		<param name="ModuleProbability_2" value="0.2" />

		<!-- probability that a strategy is applied to a given a person.  despite its name, this really is a ``weight'' -->
		<param name="ModuleProbability_3" value="0.2" />

		<!-- name of strategy (if not full class name, resolved in StrategyManagerConfigLoader) -->
		<param name="Module_1" value="ChangeExpBeta" />

		<!-- name of strategy (if not full class name, resolved in StrategyManagerConfigLoader) -->
		<param name="Module_2" value="ReRoute" />

		<!-- name of strategy (if not full class name, resolved in StrategyManagerConfigLoader) -->
		<param name="Module_3" value="TimeAllocationMutator" />

		<!-- maximum number of plans per agent.  ``0'' means ``infinity''.  Currently (2010), ``5'' is a good number -->
		<param name="maxAgentPlanMemorySize" value="5" />

		<!-- name of PlanSelector for plans removal.  If not full class name, resolved in StrategyManagerConfigLoader.  default is `null', which eventually calls SelectWorstPlan. This is not a good choice from a discrete choice theoretical perspective. Alternatives, however, have not been systematically tested. kai, feb'12 -->
		<param name="planSelectorForRemoval" value="null" />
	</module>

<!-- ====================================================================== -->

	<module name="subtourModeChoice" >

		<!-- Defines the chain-based modes, seperated by commas -->
		<param name="chainBasedModes" value="car,bike" />

		<!-- Defines whether car availability must be considered or not. A agent has no car only if it has no license, or never access to a car -->
		<param name="considerCarAvailability" value="false" />

		<!-- Defines all the modes available, including chain-based modes, seperated by commas -->
		<param name="modes" value="car,pt,bike,walk" />
	</module>

<!-- ====================================================================== -->

	<module name="transit" >

		<!-- Comma-separated list of transportation modes that are handled as transit. Defaults to 'pt'. -->
		<param name="transitModes" value="pt" />

		<!-- Input file containing the transit schedule to be simulated. -->
		<param name="transitScheduleFile" value="null" />

		<!-- Input file containing the vehicles used by the departures in the transit schedule. -->
		<param name="vehiclesFile" value="null" />
	</module>

<!-- ====================================================================== -->

	<module name="transitRouter" >

		<!-- additional time the router allocates when a line switch happens. Can be interpreted as a 'safety' time that agents need to safely transfer from one line to another -->
		<param name="additionalTransferTime" value="0.0" />

		<!-- step size to increase searchRadius if no stops are found -->
		<param name="extensionRadius" value="200.0" />

		<!-- maximum beeline distance between stops that agents could transfer to by walking -->
		<param name="maxBeelineWalkConnectionDistance" value="100.0" />

		<!-- the radius in which stop locations are searched, given a start or target coordinate -->
		<param name="searchRadius" value="1000.0" />
	</module>

<!-- ====================================================================== -->

	<module name="travelTimeCalculator" >

		<!-- Transport modes that will be respected by the travel time collector. 'car' is default, which includes also bussed from the pt simulation module. Use this parameter in combination with 'filterModes' = true! -->
		<param name="analyzedModes" value="car" />

		<param name="calculateLinkToLinkTravelTimes" value="false" />
		<param name="calculateLinkTravelTimes" value="true" />

		<!-- If true, link travel times from legs performed on modes not included in the 'analyzedModes' parameter are ignored. -->
		<param name="filterModes" value="false" />

		<!-- How to deal with congested time bins that have no link entry events. `optimistic' assumes free speed (too optimistic); 'experimental_LastMile' is experimental and probably too pessimistic. -->
		<param name="travelTimeAggregator" value="optimistic" />

		<!-- The size of the time bin (in sec) into which the link travel times are aggregated for the router -->
		<param name="travelTimeBinSize" value="900" />

		<param name="travelTimeCalculator" value="TravelTimeCalculatorArray" />

		<!-- How to deal with link entry times at different positions during the time bin. Currently supported: average, linearinterpolation -->
		<param name="travelTimeGetter" value="average" />
	</module>

<!-- ====================================================================== -->

	<module name="vspExperimental" >

		<!-- String: minOfDurationAndEndTime tryEndTimeThenDuration endTimeOnly. Anything besides minOfDurationAndEndTime will internally use a different (simpler) version of the TimeAllocationMutator. -->
		<param name="activityDurationInterpretation" value="minOfDurationAndEndTime" />

		<!-- REQUIRED: file with HBEFA 3.1 fleet average cold emission factors -->
		<param name="averageFleetColdEmissionFactorsFile" value="null" />

		<!-- REQUIRED: file with HBEFA 3.1 fleet average warm emission factors -->
		<param name="averageFleetWarmEmissionFactorsFile" value="null" />

		<!-- (do not use) set chainBasedModes for subTourModeChoice by Yu. E.g. "car,bike", "car" -->
		<param name="chainBasedModes" value="car" />

		<!-- OPTIONAL: file with HBEFA 3.1 detailed cold emission factors -->
		<param name="detailedColdEmissionFactorsFile" value="null" />

		<!-- OPTIONAL: file with HBEFA 3.1 detailed warm emission factors -->
		<param name="detailedWarmEmissionFactorsFile" value="null" />

		<!-- REQUIRED: mapping from input road types to HBEFA 3.1 road type strings -->
		<param name="emissionRoadTypeMappingFile" value="null" />

		<!-- definition of a vehicle for every person (who is allowed to choose a vehicle in the simulation):
 - REQUIRED: vehicle type Id must start with the respective HbefaVehicleCategory followed by `;'
 - OPTIONAL: if detailed emission calculation is switched on, vehicle type Id should aditionally contain HbefaVehicleAttributes (`Technology;SizeClasse;EmConcept'), corresponding to the strings in detailedWarmEmissionFactorsFile -->
		<param name="emissionVehicleFile" value="null" />

		<!-- (do not use) Set this filename of MZ05 daily analysis -->
		<param name="inputMZ05File" value="" />

		<!-- (do not use except of you have to) There was a problem with pt interaction scoring.  Some people solved it by overwriting the parameters of the pt interaction activity type.  Doing this now throws an Exception.  If you still insist on doing this, set the following to true. -->
		<param name="isAbleToOverwritePtInteractionParams" value="false" />

		<param name="isGeneratingBoardingDeniedEvent" value="false" />

		<!-- if an approximation of the opportunity cost of time is included into the radius calculation for location choice.`true' will be faster, but it is an approximation.  Default is `true'; `false' is available for backwards compatibility. -->
		<param name="isUsingOpportunityCostOfTimeForLocationChoice" value="true" />

		<param name="logitScaleParamForPlansRemoval" value="1." />

		<!-- changes MATSim's global time format used in output files. Can be used to enforce writing fractional seconds e.g. in output_plans.  default is `hh:mm:ss' (because of backwards compatibility). see Time.java for possible formats -->
		<param name="matsimGlobalTimeformat" value="HH:mm:ss" />

		<!-- (do not use) set the traffic mode option for subTourModeChoice by Yu -->
		<param name="modes" value="car, pt" />

		<!-- (not tested) will remove plan attributes that are presumably not used, such as activityStartTime. default=false -->
		<param name="removingUnnecessaryPlanAttributes" value="false" />

		<!-- first iteration of MSA score averaging. The matsim theory department suggests to use this together with switching of choice set innovation, but it has not been tested yet. -->
		<param name="scoreMSAStartsAtIteration" value="null" />

		<!-- if true then detailed emission factor files must be provided! -->
		<param name="usingDetailedEmissionCalculation" value="false" />

		<!-- indicates if, for routing, the opportunity cost of time should be added to the mode-specific marginal utilities of time.
		Default is true; false is possible only for backwards compatibility.
		This is only a suggestion since there is (by matsim design) no way to enforce that mental modules obey this. -->
		<param name="usingOpportunityCostOfTimeForPtRouting" value="true" />

		<!-- Options: `ignore', `warn', `abort'.  Default: either `ignore' or `warn'.
		When violating VSP defaults, this results in nothing, warnings, or aborts.  Members of VSP should use `abort' or talk to kai. -->
		<param name="vspDefaultsCheckingLevel" value="ignore" />

		<!-- if true then writes output_events in output directory.  default is `false'. Will only work when lastIteration is multiple of events writing interval -->
		<param name="writingOutputEvents" value="false" />
	</module>

<!-- ====================================================================== -->

</config>

2014-08-14 10:55:34,451  INFO AbstractController:208 Complete config dump done.
2014-08-14 10:55:34,451  INFO AbstractController:209 Checking consistency of config...
2014-08-14 10:55:34,467  INFO AbstractController:211 Checking consistency of config done.
2014-08-14 10:55:34,467  INFO EventsManagerImpl:160 adding Event-Handler: org.matsim.core.trafficmonitoring.TravelTimeCalculator
2014-08-14 10:55:34,467  INFO EventsManagerImpl:164   org.matsim.core.api.experimental.events.handler.LinkEnterEventHandler
2014-08-14 10:55:34,467  INFO EventsManagerImpl:241     > org.matsim.core.api.experimental.events.LinkEnterEvent
2014-08-14 10:55:34,467  INFO EventsManagerImpl:164   org.matsim.core.api.experimental.events.handler.LinkLeaveEventHandler
2014-08-14 10:55:34,467  INFO EventsManagerImpl:241     > org.matsim.core.api.experimental.events.LinkLeaveEvent
2014-08-14 10:55:34,467  INFO EventsManagerImpl:164   org.matsim.core.api.experimental.events.handler.AgentDepartureEventHandler
2014-08-14 10:55:34,467  INFO EventsManagerImpl:241     > org.matsim.core.api.experimental.events.AgentDepartureEvent
2014-08-14 10:55:34,483  INFO EventsManagerImpl:164   org.matsim.core.api.experimental.events.handler.AgentArrivalEventHandler
2014-08-14 10:55:34,483  INFO EventsManagerImpl:241     > org.matsim.core.api.experimental.events.AgentArrivalEvent
2014-08-14 10:55:34,483  INFO EventsManagerImpl:164   org.matsim.core.events.handler.VehicleArrivesAtFacilityEventHandler
2014-08-14 10:55:34,483  INFO EventsManagerImpl:241     > org.matsim.core.api.experimental.events.VehicleArrivesAtFacilityEvent
2014-08-14 10:55:34,483  INFO EventsManagerImpl:164   org.matsim.core.events.handler.TransitDriverStartsEventHandler
2014-08-14 10:55:34,483  INFO EventsManagerImpl:241     > org.matsim.core.api.experimental.events.TransitDriverStartsEvent
2014-08-14 10:55:34,483  INFO EventsManagerImpl:164   org.matsim.core.api.experimental.events.handler.AgentStuckEventHandler
2014-08-14 10:55:34,483  INFO EventsManagerImpl:241     > org.matsim.core.api.experimental.events.AgentStuckEvent
2014-08-14 10:55:34,483  INFO EventsManagerImpl:172 
2014-08-14 10:55:34,654  INFO NetworkImpl:489 building QuadTree for nodes: xrange(615412.5662264617,729186.364161173); yrange(6513246.242810483,6679754.241279298)
2014-08-14 10:55:34,795  INFO NetworkImpl:498 Building QuadTree took 0.172 seconds.
2014-08-14 10:55:35,127  INFO Counter:51 [PersonPrepareForSim] handled person # 1
2014-08-14 10:55:35,152  INFO Counter:51 [PersonPrepareForSim] handled person # 2
2014-08-14 10:55:35,320  INFO Counter:51 [PersonPrepareForSim] handled person # 4
2014-08-14 10:55:35,506  INFO Counter:51 [PersonPrepareForSim] handled person # 8
2014-08-14 10:55:36,044  INFO Counter:51 [PersonPrepareForSim] handled person # 16
2014-08-14 10:55:36,650  INFO Counter:51 [PersonPrepareForSim] handled person # 32
2014-08-14 10:55:37,764  INFO Counter:51 [PersonPrepareForSim] handled person # 64
2014-08-14 10:55:40,514  INFO Counter:51 [PersonPrepareForSim] handled person # 128
2014-08-14 10:55:46,368  INFO Counter:51 [PersonPrepareForSim] handled person # 256
2014-08-14 10:56:02,465  INFO Counter:51 [PersonPrepareForSim] handled person # 512
2014-08-14 10:56:45,064  INFO Counter:51 [PersonPrepareForSim] handled person # 1024
2014-08-14 10:57:46,121  INFO Counter:51 [PersonPrepareForSim] handled person # 2048
2014-08-14 10:59:21,478  INFO Counter:51 [PersonPrepareForSim] handled person # 4096
2014-08-14 11:03:07,511  INFO Counter:51 [PersonPrepareForSim] handled person # 8192
2014-08-14 11:12:03,086  INFO Counter:51 [PersonPrepareForSim] handled person # 16384
2014-08-14 11:15:43,156  INFO Counter:57 [PersonPrepareForSim] handled person # 18846
2014-08-14 11:15:43,157  INFO AbstractController:156 ###################################################
2014-08-14 11:15:43,158  INFO AbstractController:157 ### ITERATION 0 BEGINS
2014-08-14 11:15:43,159  INFO OutputDirectoryHierarchy:144 Iteration directory output01/ITERS/it.0 exists already.
2014-08-14 11:15:43,161  INFO ControlerListenerManager:159 calling notifyIterationStarts on org.matsim.core.controler.corelisteners.PlansScoring
2014-08-14 11:15:43,261  INFO EventsManagerImpl:160 adding Event-Handler: org.matsim.core.scoring.EventsToScore
2014-08-14 11:15:43,262  INFO EventsManagerImpl:164   org.matsim.core.events.handler.BasicEventHandler
2014-08-14 11:15:43,262  INFO EventsManagerImpl:241     > org.matsim.core.api.experimental.events.Event
2014-08-14 11:15:43,262  INFO EventsManagerImpl:172 
2014-08-14 11:15:43,263  INFO ControlerListenerManager:164 calling notifyIterationStarts on org.matsim.core.controler.corelisteners.LinkStatsControlerListener
2014-08-14 11:15:43,263  INFO ControlerListenerManager:164 calling notifyIterationStarts on org.matsim.core.controler.corelisteners.LegHistogramListener
2014-08-14 11:15:43,263  INFO ControlerListenerManager:167 [it.0] all ControlerIterationStartsListeners called.
2014-08-14 11:15:43,265  INFO ControlerListenerManager:247 calling notifyBeforeMobsim on org.matsim.core.controler.corelisteners.EventsHandling
2014-08-14 11:15:43,265  INFO EventsManagerImpl:195 resetting Event-Handlers
2014-08-14 11:15:43,266  INFO EventsManagerImpl:202   org.matsim.analysis.VolumesAnalyzer
2014-08-14 11:15:43,266  INFO EventsManagerImpl:202   org.matsim.core.trafficmonitoring.TravelTimeCalculator
2014-08-14 11:15:43,541  INFO EventsManagerImpl:202   org.matsim.analysis.CalcLegTimes
2014-08-14 11:15:43,542  INFO EventsManagerImpl:202   org.matsim.analysis.LegHistogram
2014-08-14 11:15:43,542  INFO EventsManagerImpl:202   org.matsim.core.scoring.EventsToScore
2014-08-14 11:15:43,606  INFO EventsManagerImpl:160 adding Event-Handler: org.matsim.core.events.algorithms.EventWriterXML
2014-08-14 11:15:43,606  INFO EventsManagerImpl:164   org.matsim.core.events.algorithms.EventWriter
2014-08-14 11:15:43,607  INFO EventsManagerImpl:164   org.matsim.core.events.handler.BasicEventHandler
2014-08-14 11:15:43,607  INFO EventsManagerImpl:241     > org.matsim.core.api.experimental.events.Event
2014-08-14 11:15:43,607  INFO EventsManagerImpl:172 
2014-08-14 11:15:43,608  INFO ControlerListenerManager:247 calling notifyBeforeMobsim on org.matsim.core.controler.corelisteners.PlansDumping
2014-08-14 11:15:43,608  INFO PlansDumping:77 dumping plans...
2014-08-14 11:15:43,639  INFO Counter:51 [PopulationWriter] dumped person # 1
2014-08-14 11:15:43,640  INFO Counter:51 [PopulationWriter] dumped person # 2
2014-08-14 11:15:43,641  INFO Counter:51 [PopulationWriter] dumped person # 4
2014-08-14 11:15:43,662  INFO Counter:51 [PopulationWriter] dumped person # 8
2014-08-14 11:15:43,670  INFO Counter:51 [PopulationWriter] dumped person # 16
2014-08-14 11:15:43,678  INFO Counter:51 [PopulationWriter] dumped person # 32
2014-08-14 11:15:43,686  INFO Counter:51 [PopulationWriter] dumped person # 64
2014-08-14 11:15:43,719  INFO Counter:51 [PopulationWriter] dumped person # 128
2014-08-14 11:15:43,786  INFO Counter:51 [PopulationWriter] dumped person # 256
2014-08-14 11:15:43,863  INFO Counter:51 [PopulationWriter] dumped person # 512
2014-08-14 11:15:43,963  INFO Counter:51 [PopulationWriter] dumped person # 1024
2014-08-14 11:15:44,242  INFO Counter:51 [PopulationWriter] dumped person # 2048
2014-08-14 11:15:44,523  INFO Counter:51 [PopulationWriter] dumped person # 4096
[...]
2014-08-14 17:59:24,199  INFO EventsManagerImpl:164   org.matsim.core.events.algorithms.EventWriter
2014-08-14 17:59:24,199  INFO EventsManagerImpl:164   org.matsim.core.events.handler.BasicEventHandler
2014-08-14 17:59:24,199  INFO EventsManagerImpl:241     > org.matsim.core.api.experimental.events.Event
2014-08-14 17:59:24,199  INFO EventsManagerImpl:172 
2014-08-14 17:59:24,214  INFO ControlerListenerManager:247 calling notifyBeforeMobsim on org.matsim.core.controler.corelisteners.PlansDumping
2014-08-14 17:59:24,214  INFO PlansDumping:77 dumping plans...
2014-08-14 17:59:24,214  INFO Counter:51 [PopulationWriter] dumped person # 1
2014-08-14 17:59:24,214  INFO Counter:51 [PopulationWriter] dumped person # 2
2014-08-14 17:59:24,214  INFO Counter:51 [PopulationWriter] dumped person # 4
2014-08-14 17:59:24,214  INFO Counter:51 [PopulationWriter] dumped person # 8
2014-08-14 17:59:24,230  INFO Counter:51 [PopulationWriter] dumped person # 16
2014-08-14 17:59:24,230  INFO Counter:51 [PopulationWriter] dumped person # 32
2014-08-14 17:59:24,246  INFO Counter:51 [PopulationWriter] dumped person # 64
2014-08-14 17:59:24,261  INFO Counter:51 [PopulationWriter] dumped person # 128
2014-08-14 17:59:24,308  INFO Counter:51 [PopulationWriter] dumped person # 256
2014-08-14 17:59:24,386  INFO Counter:51 [PopulationWriter] dumped person # 512
2014-08-14 17:59:24,558  INFO Counter:51 [PopulationWriter] dumped person # 1024
2014-08-14 17:59:24,902  INFO Counter:51 [PopulationWriter] dumped person # 2048
2014-08-14 17:59:25,574  INFO Counter:51 [PopulationWriter] dumped person # 4096
2014-08-14 17:59:26,855  INFO Counter:51 [PopulationWriter] dumped person # 8192
2014-08-14 17:59:29,621  INFO Counter:51 [PopulationWriter] dumped person # 16384
2014-08-14 17:59:30,433  INFO Counter:57 [PopulationWriter] dumped person # 18846
2014-08-14 17:59:30,433  INFO PopulationWriter:173 Population written to: output01/ITERS/it.100/100.plans.xml.gz
2014-08-14 17:59:30,433  INFO PlansDumping:79 finished plans dump.
2014-08-14 17:59:30,433  INFO ControlerListenerManager:255 [it.100] all ControlerBeforeMobsimListeners called.
2014-08-14 17:59:30,433  INFO QSim:169 Using QSim...
2014-08-14 17:59:30,636  INFO MobsimListenerManager:58 calling addQueueSimulationListener
2014-08-14 17:59:30,636  INFO MobsimListenerManager:62   assigned class org.matsim.core.mobsim.framework.listeners.MobsimListener to interface org.matsim.core.mobsim.framework.listeners.MobsimInitializedListener
2014-08-14 17:59:30,636  INFO MobsimListenerManager:62   assigned class org.matsim.core.mobsim.framework.listeners.MobsimListener to interface org.matsim.core.mobsim.framework.listeners.MobsimBeforeCleanupListener
2014-08-14 17:59:30,636  INFO MobsimListenerManager:62   assigned class org.matsim.core.mobsim.framework.listeners.MobsimListener to interface org.matsim.core.mobsim.framework.listeners.MobsimAfterSimStepListener
2014-08-14 17:59:30,636  INFO MobsimListenerManager:62   assigned class org.matsim.core.mobsim.framework.listeners.MobsimListener to interface org.matsim.vis.snapshotwriters.SnapshotWriterManager
2014-08-14 17:59:30,636  INFO MobsimListenerManager:62   assigned class org.matsim.core.mobsim.framework.listeners.MobsimListener to interface org.matsim.core.mobsim.framework.listeners.MobsimListener
2014-08-14 17:59:30,714  INFO EventsManagerImpl:153  event # 1
2014-08-14 17:59:30,714  INFO EventsManagerImpl:153  event # 2
2014-08-14 17:59:30,714  INFO EventsManagerImpl:153  event # 4
2014-08-14 17:59:30,714  INFO QNetsimEngine:298 SIMULATION (QNetsimEngine) AT 03:46:31 : #links=1 #nodes=0
2014-08-14 17:59:30,714  INFO QSim:389 SIMULATION (NEW QSim) AT 03:46:31 : #Veh=18846 lost=0 simT=0.0s realT=0s; (s/r): 0.0
2014-08-14 17:59:30,714  INFO Gbl:48 used RAM: 1536866496B = 1500846kB = 1465MB  free: 854935360B = 815MB  total: 2391801856B = 2281MB
2014-08-14 17:59:30,730  INFO EventsManagerImpl:153  event # 8
2014-08-14 17:59:30,730  INFO EventsManagerImpl:153  event # 16
2014-08-14 17:59:30,730  INFO EventsManagerImpl:153  event # 32
2014-08-14 17:59:30,730  INFO QNetsimEngine:298 SIMULATION (QNetsimEngine) AT 04:00:00 : #links=3 #nodes=0
2014-08-14 17:59:30,730  INFO QSim:389 SIMULATION (NEW QSim) AT 04:00:00 : #Veh=18846 lost=0 simT=809.0s realT=0s; (s/r): Infinity
2014-08-14 17:59:30,730  INFO Gbl:48 used RAM: 1536866496B = 1500846kB = 1465MB  free: 854935360B = 815MB  total: 2391801856B = 2281MB
2014-08-14 17:59:30,730  INFO EventsManagerImpl:153  event # 64
2014-08-14 17:59:30,730  INFO EventsManagerImpl:153  event # 128
2014-08-14 17:59:30,730  INFO EventsManagerImpl:153  event # 256
2014-08-14 17:59:30,730  INFO EventsManagerImpl:153  event # 512
2014-08-14 17:59:30,730  INFO EventsManagerImpl:153  event # 1024
2014-08-14 17:59:30,746  INFO EventsManagerImpl:153  event # 2048
2014-08-14 17:59:30,761  INFO EventsManagerImpl:153  event # 4096
2014-08-14 17:59:30,808  INFO EventsManagerImpl:153  event # 8192
2014-08-14 17:59:30,902  INFO EventsManagerImpl:153  event # 16384
2014-08-14 17:59:31,136  INFO EventsManagerImpl:153  event # 32768
2014-08-14 17:59:31,746  INFO EventsManagerImpl:153  event # 65536
2014-08-14 17:59:32,230  INFO QNetsimEngine:298 SIMULATION (QNetsimEngine) AT 05:00:00 : #links=2245 #nodes=64
2014-08-14 17:59:32,230  INFO QSim:389 SIMULATION (NEW QSim) AT 05:00:00 : #Veh=18846 lost=0 simT=4409.0s realT=1s; (s/r): 4409.0
2014-08-14 17:59:32,230  INFO Gbl:48 used RAM: 1667559208B = 1628475kB = 1590MB  free: 724242648B = 690MB  total: 2391801856B = 2281MB
2014-08-14 17:59:33,089  INFO EventsManagerImpl:153  event # 131072
2014-08-14 17:59:36,199  INFO EventsManagerImpl:153  event # 262144
2014-08-14 17:59:40,761  INFO QNetsimEngine:298 SIMULATION (QNetsimEngine) AT 06:00:00 : #links=2374 #nodes=39
2014-08-14 17:59:40,761  INFO QSim:389 SIMULATION (NEW QSim) AT 06:00:00 : #Veh=18846 lost=0 simT=8009.0s realT=10s; (s/r): 800.9
2014-08-14 17:59:40,761  INFO Gbl:48 used RAM: 1886489896B = 1842275kB = 1799MB  free: 510030552B = 486MB  total: 2396520448B = 2285MB
2014-08-14 17:59:42,339  INFO EventsManagerImpl:153  event # 524288
2014-08-14 17:59:49,277  INFO QNetsimEngine:298 SIMULATION (QNetsimEngine) AT 07:00:00 : #links=2237 #nodes=44
2014-08-14 17:59:49,293  INFO QSim:389 SIMULATION (NEW QSim) AT 07:00:00 : #Veh=18846 lost=0 simT=11609.0s realT=18s; (s/r): 644.9444444444445
2014-08-14 17:59:49,293  INFO Gbl:48 used RAM: 1503121136B = 1467891kB = 1433MB  free: 886059280B = 845MB  total: 2389180416B = 2278MB
2014-08-14 17:59:53,839  INFO EventsManagerImpl:153  event # 1048576
2014-08-14 17:59:56,918  INFO QNetsimEngine:298 SIMULATION (QNetsimEngine) AT 08:00:00 : #links=2057 #nodes=48
2014-08-14 17:59:56,918  INFO QSim:389 SIMULATION (NEW QSim) AT 08:00:00 : #Veh=18846 lost=0 simT=15209.0s realT=26s; (s/r): 584.9615384615385
2014-08-14 17:59:56,918  INFO Gbl:48 used RAM: 1527592552B = 1491789kB = 1456MB  free: 875219352B = 834MB  total: 2402811904B = 2291MB
2014-08-14 18:00:04,480  INFO QNetsimEngine:298 SIMULATION (QNetsimEngine) AT 09:00:00 : #links=2015 #nodes=53
2014-08-14 18:00:04,480  INFO QSim:389 SIMULATION (NEW QSim) AT 09:00:00 : #Veh=18846 lost=0 simT=18809.0s realT=34s; (s/r): 553.2058823529412
2014-08-14 18:00:04,480  INFO Gbl:48 used RAM: 1528766320B = 1492935kB = 1457MB  free: 874569872B = 834MB  total: 2403336192B = 2292MB
2014-08-14 18:00:11,214  INFO QNetsimEngine:298 SIMULATION (QNetsimEngine) AT 10:00:00 : #links=1668 #nodes=36
2014-08-14 18:00:11,214  INFO QSim:389 SIMULATION (NEW QSim) AT 10:00:00 : #Veh=18846 lost=0 simT=22409.0s realT=40s; (s/r): 560.225
2014-08-14 18:00:11,214  INFO Gbl:48 used RAM: 1959897344B = 1913962kB = 1869MB  free: 443438848B = 422MB  total: 2403336192B = 2292MB
2014-08-14 18:00:13,089  INFO QNetsimEngine:298 SIMULATION (QNetsimEngine) AT 11:00:00 : #links=2 #nodes=0
2014-08-14 18:00:13,089  INFO QSim:389 SIMULATION (NEW QSim) AT 11:00:00 : #Veh=18846 lost=0 simT=26009.0s realT=42s; (s/r): 619.2619047619048
2014-08-14 18:00:13,089  INFO Gbl:48 used RAM: 1601682720B = 1564143kB = 1527MB  free: 815284960B = 777MB  total: 2416967680B = 2305MB
2014-08-14 18:00:13,089  INFO QNetsimEngine:298 SIMULATION (QNetsimEngine) AT 12:00:00 : #links=16 #nodes=0
2014-08-14 18:00:13,089  INFO QSim:389 SIMULATION (NEW QSim) AT 12:00:00 : #Veh=18846 lost=0 simT=29609.0s realT=42s; (s/r): 704.9761904761905
2014-08-14 18:00:13,089  INFO Gbl:48 used RAM: 1611251816B = 1573488kB = 1536MB  free: 805715864B = 768MB  total: 2416967680B = 2305MB
2014-08-14 18:00:13,183  INFO QNetsimEngine:298 SIMULATION (QNetsimEngine) AT 13:00:00 : #links=148 #nodes=3
2014-08-14 18:00:13,183  INFO QSim:389 SIMULATION (NEW QSim) AT 13:00:00 : #Veh=18775 lost=0 simT=33209.0s realT=42s; (s/r): 790.6904761904761
2014-08-14 18:00:13,183  INFO Gbl:48 used RAM: 1620821272B = 1582833kB = 1545MB  free: 796146408B = 759MB  total: 2416967680B = 2305MB
2014-08-14 18:00:13,886  INFO QNetsimEngine:298 SIMULATION (QNetsimEngine) AT 14:00:00 : #links=844 #nodes=21
2014-08-14 18:00:13,886  INFO QSim:389 SIMULATION (NEW QSim) AT 14:00:00 : #Veh=18316 lost=0 simT=36809.0s realT=43s; (s/r): 856.0232558139535
2014-08-14 18:00:13,886  INFO Gbl:48 used RAM: 1706944936B = 1666938kB = 1627MB  free: 710022744B = 677MB  total: 2416967680B = 2305MB
2014-08-14 18:00:15,574  INFO EventsManagerImpl:153  event # 2097152
2014-08-14 18:00:18,433  INFO QNetsimEngine:298 SIMULATION (QNetsimEngine) AT 15:00:00 : #links=2208 #nodes=44
2014-08-14 18:00:18,433  INFO QSim:389 SIMULATION (NEW QSim) AT 15:00:00 : #Veh=16338 lost=0 simT=40409.0s realT=48s; (s/r): 841.8541666666666
2014-08-14 18:00:18,433  INFO Gbl:48 used RAM: 1543597960B = 1507419kB = 1472MB  free: 875991160B = 835MB  total: 2419589120B = 2307MB
2014-08-14 18:00:25,949  INFO QNetsimEngine:298 SIMULATION (QNetsimEngine) AT 16:00:00 : #links=2089 #nodes=36
2014-08-14 18:00:25,949  INFO QSim:389 SIMULATION (NEW QSim) AT 16:00:00 : #Veh=12894 lost=0 simT=44009.0s realT=55s; (s/r): 800.1636363636363
2014-08-14 18:00:25,949  INFO Gbl:48 used RAM: 2008818936B = 1961737kB = 1915MB  free: 410770184B = 391MB  total: 2419589120B = 2307MB
2014-08-14 18:00:33,730  INFO QNetsimEngine:298 SIMULATION (QNetsimEngine) AT 17:00:00 : #links=2004 #nodes=38
2014-08-14 18:00:33,730  INFO QSim:389 SIMULATION (NEW QSim) AT 17:00:00 : #Veh=9379 lost=0 simT=47609.0s realT=63s; (s/r): 755.6984126984127
2014-08-14 18:00:33,730  INFO Gbl:48 used RAM: 1975661640B = 1929357kB = 1884MB  free: 457034680B = 435MB  total: 2432696320B = 2320MB
2014-08-14 18:00:41,277  INFO QNetsimEngine:298 SIMULATION (QNetsimEngine) AT 18:00:00 : #links=1897 #nodes=30
2014-08-14 18:00:41,277  INFO QSim:389 SIMULATION (NEW QSim) AT 18:00:00 : #Veh=6029 lost=0 simT=51209.0s realT=70s; (s/r): 731.5571428571428
2014-08-14 18:00:41,277  INFO Gbl:48 used RAM: 1913255280B = 1868413kB = 1824MB  free: 523111056B = 498MB  total: 2436366336B = 2323MB
2014-08-14 18:00:48,277  INFO QNetsimEngine:298 SIMULATION (QNetsimEngine) AT 19:00:00 : #links=1841 #nodes=37
2014-08-14 18:00:48,277  INFO QSim:389 SIMULATION (NEW QSim) AT 19:00:00 : #Veh=2901 lost=0 simT=54809.0s realT=77s; (s/r): 711.8051948051948
2014-08-14 18:00:48,277  INFO Gbl:48 used RAM: 1806118952B = 1763788kB = 1722MB  free: 642830296B = 613MB  total: 2448949248B = 2335MB
2014-08-14 18:00:53,105  INFO QNetsimEngine:298 SIMULATION (QNetsimEngine) AT 20:00:00 : #links=961 #nodes=25
2014-08-14 18:00:53,105  INFO QSim:389 SIMULATION (NEW QSim) AT 20:00:00 : #Veh=406 lost=0 simT=58409.0s realT=82s; (s/r): 712.3048780487804
2014-08-14 18:00:53,105  INFO Gbl:48 used RAM: 1579980040B = 1542949kB = 1506MB  free: 874212088B = 833MB  total: 2454192128B = 2340MB
2014-08-14 18:00:53,402  INFO QNetsimEngine:298 SIMULATION (QNetsimEngine) AT 21:00:00 : #links=1 #nodes=0
2014-08-14 18:00:53,402  INFO QSim:389 SIMULATION (NEW QSim) AT 21:00:00 : #Veh=2 lost=0 simT=62009.0s realT=82s; (s/r): 756.2073170731708
2014-08-14 18:00:53,402  INFO Gbl:48 used RAM: 1615357808B = 1577497kB = 1540MB  free: 838834320B = 799MB  total: 2454192128B = 2340MB
2014-08-14 18:00:53,402  INFO QNetsimEngine:298 SIMULATION (QNetsimEngine) AT 22:00:00 : #links=1 #nodes=0
2014-08-14 18:00:53,402  INFO QSim:389 SIMULATION (NEW QSim) AT 22:00:00 : #Veh=1 lost=0 simT=65609.0s realT=82s; (s/r): 800.109756097561
2014-08-14 18:00:53,402  INFO Gbl:48 used RAM: 1615357808B = 1577497kB = 1540MB  free: 838834320B = 799MB  total: 2454192128B = 2340MB
2014-08-14 18:00:53,418  INFO QNetsimEngine:298 SIMULATION (QNetsimEngine) AT 23:00:00 : #links=2 #nodes=0
2014-08-14 18:00:53,418  INFO QSim:389 SIMULATION (NEW QSim) AT 23:00:00 : #Veh=1 lost=0 simT=69209.0s realT=82s; (s/r): 844.0121951219512
2014-08-14 18:00:53,418  INFO Gbl:48 used RAM: 1615357808B = 1577497kB = 1540MB  free: 838834320B = 799MB  total: 2454192128B = 2340MB
2014-08-14 18:00:53,574  INFO AbstractController:174 ### ITERATION 100 fires after mobsim event
2014-08-14 18:00:53,574  INFO ControlerListenerManager:268 calling notifyAfterMobsim on org.matsim.core.controler.corelisteners.EventsHandling
2014-08-14 18:00:53,574  INFO ControlerListenerManager:268 calling notifyAfterMobsim on org.matsim.core.controler.corelisteners.LegTimesListener
2014-08-14 18:00:53,574  INFO LegTimesListener:48 [100] average trip (probably: leg) duration is: 859 seconds = 00:14:19
2014-08-14 18:00:53,574  INFO ControlerListenerManager:276 [it.100] all ControlerAfterMobsimListeners called.
2014-08-14 18:00:53,574  INFO AbstractController:176 ### ITERATION 100 fires scoring event
2014-08-14 18:00:53,574  INFO ControlerListenerManager:204 calling notifyScoring on org.matsim.core.controler.corelisteners.PlansScoring
2014-08-14 18:00:53,636  INFO ControlerListenerManager:215 [it.100] all ControlerScoringListeners called.
2014-08-14 18:00:53,636  INFO AbstractController:178 ### ITERATION 100 fires iteration end event
2014-08-14 18:00:53,636  INFO ControlerListenerManager:180 calling notifyIterationEnds on org.matsim.core.controler.corelisteners.EventsHandling
2014-08-14 18:00:53,636  INFO EventsManagerImpl:177 removing Event-Handler: org.matsim.core.events.algorithms.EventWriterXML
2014-08-14 18:00:53,636  INFO ControlerListenerManager:180 calling notifyIterationEnds on org.matsim.core.controler.corelisteners.PlansScoring
2014-08-14 18:00:53,636  INFO EventsManagerImpl:177 removing Event-Handler: org.matsim.core.scoring.EventsToScore
2014-08-14 18:00:53,636  INFO ControlerListenerManager:187 calling notifyIterationEnds on org.matsim.core.controler.corelisteners.LinkStatsControlerListener
2014-08-14 18:01:00,886  INFO ControlerListenerManager:187 calling notifyIterationEnds on org.matsim.counts.CountControlerListener
2014-08-14 18:01:00,886  WARN MGC:160 Assuming that coordinates are in longitude first notation, i.e. (longitude, latitude).
2014-08-14 18:01:00,902  INFO MatsimResource:95 Resource 'countsKml/countsLegend240x300.png' not found locally. May not be fatal.
2014-08-14 18:01:00,902  INFO MatsimResource:95 Resource 'matsim_logo_transparent.png' not found locally. May not be fatal.
2014-08-14 18:01:00,902  INFO MatsimResource:95 Resource 'icons/plus.png' not found locally. May not be fatal.
2014-08-14 18:01:00,902  INFO MatsimResource:95 Resource 'icons/minus.png' not found locally. May not be fatal.
2014-08-14 18:01:00,902  INFO CountSimComparisonKMLWriter:636 writing chart data to D:\Uni\Matsim\MatsimHA2\output01\ITERS\it.100\biasErrorGraphData.txt
2014-08-14 18:01:02,730  INFO ControlerListenerManager:187 calling notifyIterationEnds on org.matsim.analysis.TravelDistanceStats
2014-08-14 18:01:02,730  INFO TravelDistanceStats:142 [TravelDistanceStats] using 2 thread(s).
2014-08-14 18:01:03,496  INFO TravelDistanceStats:155 [TravelDistanceStats] all threads finished.
2014-08-14 18:01:03,496  INFO TravelDistanceStats:184 -- average of the average leg distance per plan (executed plans only): 13963.405525943317
2014-08-14 18:01:03,496  INFO TravelDistanceStats:185 -- average of the average leg distance per plan (worst plans only): 13965.494966764183
2014-08-14 18:01:03,496  INFO TravelDistanceStats:186 -- average of the average leg distance per plan (all plans): 13962.458335102701
2014-08-14 18:01:03,496  INFO TravelDistanceStats:187 -- average of the average leg distance per plan (best plans only): 13956.342987902428
2014-08-14 18:01:03,621  INFO ControlerListenerManager:187 calling notifyIterationEnds on org.matsim.analysis.ScoreStats
2014-08-14 18:01:03,636  INFO ScoreStats:182 -- avg. score of the executed plan of each agent: 136.413975542034
2014-08-14 18:01:03,636  INFO ScoreStats:188 -- avg. score of the worst plan of each agent: 136.2465298929103
2014-08-14 18:01:03,636  INFO ScoreStats:189 -- avg. of the avg. plan score per agent: 136.44868902544653
2014-08-14 18:01:03,636  INFO ScoreStats:190 -- avg. score of the best plan of each agent: 136.63073677713356
2014-08-14 18:01:03,761  INFO ControlerListenerManager:187 calling notifyIterationEnds on org.matsim.core.controler.corelisteners.LegHistogramListener
2014-08-14 18:01:03,777  INFO LegHistogramListener:77 number of legs:	37692	100%
2014-08-14 18:01:03,777  INFO LegHistogramListener:84 number of car legs:	37692	100.0%
2014-08-14 18:01:03,777  INFO LegHistogramListener:86 (car legs include legs by pt vehicles)
2014-08-14 18:01:04,277  INFO ControlerListenerManager:191 [it.100] all ControlerIterationEndsListeners called.
2014-08-14 18:01:04,293  INFO AbstractController:182 ### ITERATION 100 ENDS
2014-08-14 18:01:04,293  INFO AbstractController:183 ###################################################
2014-08-14 18:01:04,293  INFO ControlerListenerManager:139 calling notifyShutdown on org.matsim.core.controler.corelisteners.EventsHandling
2014-08-14 18:01:04,293  INFO ControlerListenerManager:139 calling notifyShutdown on org.matsim.core.controler.corelisteners.DumpDataAtEnd
2014-08-14 18:01:04,402  INFO Counter:51 [PopulationWriter] dumped person # 1
2014-08-14 18:01:04,402  INFO Counter:51 [PopulationWriter] dumped person # 2
2014-08-14 18:01:04,402  INFO Counter:51 [PopulationWriter] dumped person # 4
2014-08-14 18:01:04,418  INFO Counter:51 [PopulationWriter] dumped person # 8
2014-08-14 18:01:04,418  INFO Counter:51 [PopulationWriter] dumped person # 16
2014-08-14 18:01:04,418  INFO Counter:51 [PopulationWriter] dumped person # 32
2014-08-14 18:01:04,433  INFO Counter:51 [PopulationWriter] dumped person # 64
2014-08-14 18:01:04,449  INFO Counter:51 [PopulationWriter] dumped person # 128
2014-08-14 18:01:04,496  INFO Counter:51 [PopulationWriter] dumped person # 256
2014-08-14 18:01:04,574  INFO Counter:51 [PopulationWriter] dumped person # 512
2014-08-14 18:01:04,746  INFO Counter:51 [PopulationWriter] dumped person # 1024
2014-08-14 18:01:05,105  INFO Counter:51 [PopulationWriter] dumped person # 2048
2014-08-14 18:01:05,777  INFO Counter:51 [PopulationWriter] dumped person # 4096
2014-08-14 18:01:07,058  INFO Counter:51 [PopulationWriter] dumped person # 8192
2014-08-14 18:01:09,699  INFO Counter:51 [PopulationWriter] dumped person # 16384
2014-08-14 18:01:10,511  INFO Counter:57 [PopulationWriter] dumped person # 18846
2014-08-14 18:01:10,511  INFO PopulationWriter:173 Population written to: output01/output_plans.xml.gz
2014-08-14 18:01:10,527  INFO NetworkWriter:47 Writing network to file: output01/output_network.xml.gz...
2014-08-14 18:01:11,871  INFO NetworkWriter:50 done.
2014-08-14 18:01:11,871  INFO Counter:57 [FacilitiesWriter] dumped facility # 0
2014-08-14 18:01:11,886  INFO ControlerListenerManager:144 calling notifyShutdown on org.matsim.analysis.TravelDistanceStats
2014-08-14 18:01:11,886  INFO ControlerListenerManager:144 calling notifyShutdown on org.matsim.analysis.ScoreStats
2014-08-14 18:01:11,902  INFO ControlerListenerManager:148 all ControlerShutdownListeners called.
