2014-07-19 14:46:27,676  INFO Gbl:53 JVM: 1.7.0_51; Oracle Corporation; mixed mode; 32-bit
2014-07-19 14:46:27,676  INFO Gbl:57 OS: Windows 8; 6.2; x86
2014-07-19 14:46:27,676  INFO Gbl:60 CPU cores: 2
2014-07-19 14:46:27,676  INFO Gbl:61 max. Memory: 1450.0MB (1520435200B)
2014-07-19 14:46:27,676  INFO Gbl:89 MATSim-Build: r${buildNumber} (${timestamp})
2014-07-19 14:46:27,676  INFO AbstractController:71 Used Controler-Class: org.matsim.core.controler.Controler
2014-07-19 14:46:27,676  INFO AbstractController:203 Complete config dump directly after reading/getting the config file.  See later for config dump after setup.
2014-07-19 14:46:27,692  INFO AbstractController:207 

<?xml version="1.0" encoding="UTF-8"?>
<!DOCTYPE config SYSTEM "http://www.matsim.org/files/dtd/config_v1.dtd">
<config>

<!-- ====================================================================== -->

	<module name="TimeAllocationMutator" >

		<!-- Defines how many seconds a time mutation can maximally shift a time. -->
		<param name="mutationRange" value="7200.0" />
	</module>

<!-- ====================================================================== -->

	<module name="controler" >
		<param name="enableLinkToLinkRouting" value="false" />

		<!-- Specifies the file format for writing events. Currently supported: txt, xml. Multiple values can be specified separated by commas (','). -->
		<param name="eventsFileFormat" value="xml" />

		<param name="firstIteration" value="0" />
		<param name="lastIteration" value="10" />

		<!-- Defines which mobility simulation will be used. Currently supported: queueSimulation qsim JDEQSim multimodalQSim 
Depending on the chosen mobsim, you'll have to add additional config modules to configure the corresponding mobsim.
For 'qsim', add a module 'qsim' to the config.
For 'queueSimulation', add a module 'simulation' to the config. -->
		<param name="mobsim" value="qsim" />

		<param name="outputDirectory" value="output01/" />

		<!-- The type of routing (least cost path) algorithm used, may have the values: Dijkstra, FastDijkstra, AStarLandmarks or FastAStarLandmarks -->
		<param name="routingAlgorithmType" value="Dijkstra" />

		<!-- An identifier for the current run which is used as prefix for output files and mentioned in output xml files etc. -->
		<param name="runId" value="null" />

		<!-- Comma-separated list of visualizer output file formats. `transims', `googleearth', and `otfvis'. -->
		<param name="snapshotFormat" value="" />

		<!-- iterationNumber % writeEventsInterval == 0 defines in which iterations events are written to a file. `0' disables events writing completely. -->
		<param name="writeEventsInterval" value="10" />

		<!-- iterationNumber % writePlansInterval == 0 defines (hopefully) in which iterations plans are written to a file. `0' disables plans writing completely.  Some plans in early iterations are always written -->
		<param name="writePlansInterval" value="10" />

		<!-- iterationNumber % writeSnapshotsInterval == 0 defines in which iterations snapshots are written to a file. `0' disables snapshots writing completely -->
		<param name="writeSnapshotsInterval" value="1" />
	</module>

<!-- ====================================================================== -->

	<module name="counts" >

		<!-- Specifies over how many iterations the link volumes should be averaged that are used for the counts comparison. Use 1 or 0 to only use the link volumes of a single iteration. This values cannot be larger than the value specified for writeCountsInterval -->
		<param name="averageCountsOverIterations" value="5" />

		<!-- factor by which to re-scale the simulated values.  necessary when simulation runs with something different from 100%.  needs to be adapted manually -->
		<param name="countsScaleFactor" value="100.0" />

		<!-- distance to distanceFilterCenterNode to include counting stations. The unit of distance is the Euclidean distance implied by the coordinate system -->
		<param name="distanceFilter" value="null" />

		<!-- node id for center node of distance filter -->
		<param name="distanceFilterCenterNode" value="null" />

		<!-- input file name to counts package -->
		<param name="inputCountsFile" value="input/counts.xml" />

		<!-- possible values: `html', `kml', `txt', `all' -->
		<param name="outputformat" value="kml" />

		<!-- Specifies how often the counts comparison should be calculated and written. -->
		<param name="writeCountsInterval" value="10" />
	</module>

<!-- ====================================================================== -->

	<module name="facilities" >
		<param name="inputFacilitiesFile" value="null" />
	</module>

<!-- ====================================================================== -->

	<module name="global" >
		<param name="coordinateSystem" value="Atlantis" />
		<param name="numberOfThreads" value="2" />
		<param name="randomSeed" value="4711" />
	</module>

<!-- ====================================================================== -->

	<module name="households" >
		<param name="inputFile" value="null" />
	</module>

<!-- ====================================================================== -->

	<module name="linkStats" >

		<!-- Specifies over how many iterations the link volumes should be averaged that are used for the link statistics. Use 1 or 0 to only use the link volumes of a single iteration. This values cannot be larger than the value specified for writeLinkStatsInterval -->
		<param name="averageLinkStatsOverIterations" value="5" />

		<!-- Specifies how often the link stats should be calculated and written. Use 0 to disable the generation of link stats. -->
		<param name="writeLinkStatsInterval" value="10" />
	</module>

<!-- ====================================================================== -->

	<module name="locationchoice" >
		<param name="algorithm" value="random" />
		<param name="analysisBinSize" value="20000.0" />
		<param name="analysisBoundary" value="200000.0" />
		<param name="centerNode" value="null" />
		<param name="destinationSamplePercent" value="100.0" />
		<param name="epsilonDistribution" value="gumbel" />
		<param name="epsilonScaleFactors" value="null" />
		<param name="fAttributesFileName" value="null" />
		<param name="fkValuesFile" value="null" />
		<param name="flexible_types" value="null" />
		<param name="idExclusion" value="2147483647" />
		<param name="maxDCScoreFile" value="null" />
		<param name="maxDistanceDCScore" value="-1.0" />
		<param name="maxRecursions" value="1" />
		<param name="pBetasFileName" value="null" />
		<param name="pkValuesFile" value="null" />
		<param name="planSelector" value="SelectExpBeta" />
		<param name="probChoiceSetSize" value="10" />
		<param name="radius" value="null" />
		<param name="randomSeed" value="221177" />
		<param name="recursionTravelSpeed" value="8.5" />
		<param name="recursionTravelSpeedChange" value="0.1" />
		<param name="restraintFcnExp" value="0.0" />
		<param name="restraintFcnFactor" value="0.0" />
		<param name="scaleFactor" value="1" />
		<param name="tt_approximationLevel" value="0" />
	</module>

<!-- ====================================================================== -->

	<module name="multimodal" >

		<!-- Use this, if your network is not multi modal. Links with free speeds that are lower than the specified cutoff value will be usable for walk and bike trips. -->
		<param name="createMultiModalNetwork" value="false" />

		<!-- Only used, if createMultiModalNetwork is enabled (set value in m/s). -->
		<param name="cuttoffValueForNonCarModes" value="22.22222222222222" />

		<param name="dropNonCarRoutes" value="false" />
		<param name="multiModalSimulationEnabled" value="false" />

		<!-- Use number of threads > 1 for parallel version using the specified number of threads. -->
		<param name="numberOfThreads" value="1" />

		<param name="simulatedModes" value="pt,walk,ride,bike" />
	</module>

<!-- ====================================================================== -->

	<module name="network" >
		<param name="inputChangeEventsFile" value="null" />
		<param name="inputNetworkFile" value="input/network_cleaned_simplified.xml" />
		<param name="laneDefinitionsFile" value="null" />
		<param name="timeVariantNetwork" value="false" />
	</module>

<!-- ====================================================================== -->

	<module name="otfvis" >

		<!-- The (initial) size of the agents.  Only a range of numbers is allowed, otherwise otfvis aborts rather ungracefully, or displays no agents at all. -->
		<param name="agentSize" value="120.0" />

		<!-- coloring scheme for otfvis.  Currently (2012) allowed values: standard bvg bvg2 byId gtfs -->
		<param name="coloringScheme" value="standard" />

		<!-- If non-moving items (e.g. agents at activities, at bus stops, etc.) should be showed.  May affect all non-moving items. -->
		<param name="drawNonMovingItems" value="false" />

		<param name="drawTransitFacilities" value="true" />
		<param name="drawTransitFacilityIds" value="true" />
		<param name="leftMouseFunc" value="Zoom" />

		<!-- The (initial) width of the links of the network. Use positive floating point values. -->
		<param name="linkWidth" value="30.0" />

		<!-- Link width is proportional to `numberOfLanes' or to `capacity'. -->
		<param name="linkwidthIsProportionalTo" value="numberOfLanes" />

		<!-- URL to get WMS tiles from. For a local GeoServer instance, use http://localhost:8080/geoserver/wms?service=WMS& -->
		<param name="mapBaseURL" value="" />

		<!-- The WMS layer to display. For GeoServer and a layer called clipped in workspace mz, use mz:clipped -->
		<param name="mapLayer" value="" />

		<!-- Render everything on top of map tiles. Default: From tiles.openstreetmap.org -->
		<param name="mapOverlayMode" value="false" />

		<param name="middleMouseFunc" value="Pan" />

		<!-- Shortens a link's start and end point in the visualization. -->
		<param name="nodeOffset" value="0.0" />

		<param name="rightMouseFunc" value="Select" />
		<param name="showTeleportation" value="false" />
	</module>

<!-- ====================================================================== -->

	<module name="parallelEventHandling" >

		<!-- estimated number of events during mobsim run, useful for configuration -->
		<param name="estimatedNumberOfEvents" value="null" />

		<!-- number of threads for parallel events handler.  0 or null means parallel events handler is disabled -->
		<param name="numberOfThreads" value="null" />
	</module>

<!-- ====================================================================== -->

	<module name="planCalcScore" >

		<!-- new_score = (1-learningRate)*old_score + learningRate * score_from_mobsim.  learning rates close to zero emulate score averaging, but slow down initial convergence -->
		<param name="learningRate" value="1.0" />

		<!-- logit model scale parameter. default: 2.  Has name and default value for historical reasons (see Bryan Raney's phd thesis).  Should be in strategyConfigGroup. -->
		<param name="BrainExpBeta" value="2.0" />

		<param name="PathSizeLogitBeta" value="1.0" />

		<!-- [utils/hr] utility for arriving late (i.e. after the latest start time).  normally negative -->
		<param name="lateArrival" value="-18.0" />

		<!-- [utils/hr] utility for departing early (i.e. before the earliest end time).  Probably implemented correctly, but not tested. -->
		<param name="earlyDeparture" value="-0.0" />

		<!-- [utils/hr] marginal utility of doing an activity.  normally positive.  also the opportunity cost of time if agent is doing nothing. -->
		<param name="performing" value="6.0" />

		<!-- [utils/hr] additional marginal utility of traveling by car.  normally negative.  this comes on top of the opportunity cost of time -->
		<param name="traveling" value="-6.0" />

		<!-- [utils/hr] additional marginal utility offset of traveling by pt.  normally negative.  this comes on top of the opportunity cost of time -->
		<param name="travelingPt" value="-6.0" />

		<!-- [utils/hr] additional marginal utility offset of traveling by foot.  normally negative.  this comes on top of the opportunity cost of time.  also see marginalUtlOfDistanceWalk -->
		<param name="travelingWalk" value="-6.0" />

		<param name="travelingOther" value="-6.0" />
		<param name="travelingBike" value="-6.0" />

		<!-- [utils/hr] utility offset for waiting.  this comes on top of the opportunity cost of time.  Probably implemented correctly, but not tested. -->
		<param name="waiting" value="-0.0" />

		<!-- [utils/hr] utility offset for waiting for a pt vehicle.  this comes on top of the opportunity cost of time. Default: if not set explicitly, it is equal to traveling_pt!!! -->
		<param name="waitingPt" value="-6.0" />

		<!-- [utils/m] utility of walking per m, normally negative.  this is on top of the time (dis)utility. -->
		<param name="marginalUtlOfDistanceWalk" value="0.0" />

		<param name="marginalUtlOfDistanceOther" value="0.0" />

		<!-- [utils/unit_of_money] conversion of money (e.g. toll, distance cost) into utils -->
		<param name="marginalUtilityOfMoney" value="1.0" />

		<!-- [unit_of_money/m] conversion of car distance into money. Probably needs to be negative to work. -->
		<param name="monetaryDistanceCostRateCar" value="0.0" />

		<!-- [unit_of_money/m] conversion of pt distance into money. Probably needs to be negative to work. -->
		<param name="monetaryDistanceCostRatePt" value="0.0" />

		<!-- [utils] utility of switching a line (= transfer penalty).  Normally negative -->
		<param name="utilityOfLineSwitch" value="-1.0" />

		<!-- [utils] alternative-specific constant for car.  no guarantee that this is used anywhere. default=0 to be backwards compatible for the time being -->
		<param name="constantCar" value="0.0" />

		<!-- [utils] alternative-specific constant for walk.  no guarantee that this is used anywhere. default=0 to be backwards compatible for the time being -->
		<param name="constantWalk" value="0.0" />

		<param name="constantOther" value="0.0" />

		<!-- [utils] alternative-specific constant for bike.  no guarantee that this is used anywhere. default=0 to be backwards compatible for the time being -->
		<param name="constantBike" value="0.0" />

		<!-- [utils] alternative-specific constant for pt.  no guarantee that this is used anywhere. default=0 to be backwards compatible for the time being -->
		<param name="constantPt" value="0.0" />

		<!-- write a plans file in each iteration directory which contains what each agent actually did, and the score it received. -->
		<param name="writeExperiencedPlans" value="false" />

		<!--  ============================  -->
		<param name="activityType_0" value="home" />

		<param name="activityPriority_0" value="1.0" />
		<param name="activityTypicalDuration_0" value="12:00:00" />
		<param name="activityMinimalDuration_0" value="undefined" />
		<param name="activityOpeningTime_0" value="undefined" />
		<param name="activityLatestStartTime_0" value="undefined" />
		<param name="activityEarliestEndTime_0" value="undefined" />
		<param name="activityClosingTime_0" value="undefined" />

		<!--  ============================  -->
		<param name="activityType_1" value="work" />

		<param name="activityPriority_1" value="1.0" />
		<param name="activityTypicalDuration_1" value="08:00:00" />
		<param name="activityMinimalDuration_1" value="undefined" />
		<param name="activityOpeningTime_1" value="05:00:00" />
		<param name="activityLatestStartTime_1" value="10:30:00" />
		<param name="activityEarliestEndTime_1" value="undefined" />
		<param name="activityClosingTime_1" value="20:00:00" />
	</module>

<!-- ====================================================================== -->

	<module name="plans" >

		<!-- Path to a file containing person attributes (required file format: ObjectAttributes). -->
		<param name="inputPersonAttributesFile" value="null" />

		<param name="inputPlansFile" value="input/plans.xml" />

		<!-- Defines how routes are stored in memory. Currently supported: LinkNetworkRoute, CompressedNetworkRoute. -->
		<param name="networkRouteType" value="LinkNetworkRoute" />
	</module>

<!-- ====================================================================== -->

	<module name="planscalcroute" >

		<!-- factor with which beeline distances (and therefore times) are multiplied in order to obtain an estimate of the network distances/times.  Default is something like 1.3 -->
		<param name="beelineDistanceFactor" value="1.3" />

		<!-- All the modes for which the router is supposed to generate network routes (like car) -->
		<param name="networkModes" value="car,ride" />

		<!-- Free-speed factor for a teleported mode based on freespeed: freespeedFactor * <freespeed car travel time>. Insert a line like this for every such mode. freespeedFactor wins over teleportedModeSpeed, if both are set (says michaz). -->
		<param name="teleportedModeFreespeedFactor_pt" value="2.0" />
	</module>

<!-- ====================================================================== -->

	<module name="ptCounts" >

		<!-- factor by which to re-scale the simulated values.  necessary when simulation runs with something different from 100%.  needs to be adapted manually -->
		<param name="countsScaleFactor" value="1.0" />

		<!-- distance to distanceFilterCenterNode to include counting stations. The unit of distance is the Euclidean distance implied by the coordinate system -->
		<param name="distanceFilter" value="null" />

		<!-- node id for center node of distance filter -->
		<param name="distanceFilterCenterNode" value="null" />

		<!-- input file containing the alighting (getting off) counts for pt -->
		<param name="inputAlightCountsFile" value="null" />

		<!-- input file containing the boarding (getting on) counts for pt -->
		<param name="inputBoardCountsFile" value="null" />

		<!-- input file containing the occupancy counts for pt -->
		<param name="inputOccupancyCountsFile" value="null" />

		<!-- possible values: `html', `kml', `txt', `all' -->
		<param name="outputformat" value="null" />

		<!-- every how many iterations (starting with 0) counts comparisons are generated -->
		<param name="ptCountsInterval" value="10" />
	</module>

<!-- ====================================================================== -->

	<module name="qsim" >
		<param name="endTime" value="24:00:00" />
		<param name="flowCapacityFactor" value="1.0" />

		<!-- decides if waiting vehicles enter the network after or before the already driving vehicles were moved. Default: false -->
		<param name="insertingWaitingVehiclesBeforeDrivingVehicles" value="false" />

		<!-- Defines which mode should be the qsim `main' (=congested) mode. Technically, this is the mode that the departure handler of the netsimengine handles.  Effective cell size, effective lane width, flow capacity factor, and storage capacity factor need to be set with diligence.  Needs to be a vehicular mode to make sense. -->
		<param name="mainMode" value="car" />

		<!-- Use number of threads > 1 for parallel version using the specified number of threads -->
		<param name="numberOfThreads" value="1" />

		<!-- Boolean. `true': stuck vehicles are removed, aborting the plan; `false': stuck vehicles are forced into the next link. `false' is probably the better choice. -->
		<param name="removeStuckVehicles" value="false" />

		<!-- `maxOfStarttimeAndEarliestActivityEnd' (default behavior) or `onlyUseStarttime' -->
		<param name="simStarttimeInterpretation" value="maxOfStarttimeAndEarliestActivityEnd" />

		<!-- snapshotStyle: `equiDist' (vehicles equidistant on link) or `queue' (vehicles queued at end of link) or `withHolesExperimental' (experimental!!) -->
		<param name="snapshotStyle" value="equiDist" />

		<param name="snapshotperiod" value="00:00:00" />
		<param name="startTime" value="00:00:00" />
		<param name="storageCapacityFactor" value="1.0" />

		<!-- time in seconds.  Time after which the frontmost vehicle on a link is called `stuck' if it does not move. -->
		<param name="stuckTime" value="10.0" />

		<param name="timeStepSize" value="00:00:01" />

		<!-- `queue' for the standard queue model, `withHolesExperimental' (experimental!!) for the queue model with holes -->
		<param name="trafficDynamics" value="queue" />

		<!-- Defines what happens if an agent wants to depart, but the specified vehicle is not available. One of: teleport, wait, exception -->
		<param name="vehicleBehavior" value="teleport" />
	</module>

<!-- ====================================================================== -->

	<module name="roadpricing" >
	</module>

<!-- ====================================================================== -->

	<module name="scenario" >

		<!-- Set this parameter to true if households should be used, false if not. -->
		<param name="useHouseholds" value="false" />

		<!-- Set this parameter to true if knowledge should be used, false if not. -->
		<param name="useKnowledge" value="true" />

		<!-- Set this parameter to true if lanes should be used, false if not. -->
		<param name="useLanes" value="false" />

		<!-- Set this parameter to true if roadpricing should be used, false if not. -->
		<param name="useRoadpricing" value="false" />

		<!-- Set this parameter to true if signal systems should be used, false if not. -->
		<param name="useSignalsystems" value="false" />

		<!-- Set this parameter to true if transit should be simulated, false if not. -->
		<param name="useTransit" value="false" />

		<!-- Set this parameter to true if vehicles should be used, false if not. -->
		<param name="useVehicles" value="false" />
	</module>

<!-- ====================================================================== -->

	<module name="signalsystems" >
		<param name="ambertimes" value="null" />
		<param name="intergreentimes" value="null" />
		<param name="signalcontrol" value="null" />
		<param name="signalgroups" value="null" />
		<param name="signalsystems" value="null" />
		<param name="useAmbertimes" value="false" />
		<param name="useIntergreentimes" value="false" />
	</module>

<!-- ====================================================================== -->

	<module name="strategy" >
		<param name="ExternalExeConfigTemplate" value="null" />
		<param name="ExternalExeTimeOut" value="3600" />
		<param name="ExternalExeTmpFileRootDir" value="null" />

		<!-- iteration after which module will be disabled.  most useful for ``innovative'' strategies (new routes, new times, ...) -->
		<param name="ModuleDisableAfterIteration_1" value="null" />

		<!-- iteration after which module will be disabled.  most useful for ``innovative'' strategies (new routes, new times, ...) -->
		<param name="ModuleDisableAfterIteration_2" value="80" />

		<!-- iteration after which module will be disabled.  most useful for ``innovative'' strategies (new routes, new times, ...) -->
		<param name="ModuleDisableAfterIteration_3" value="null" />

		<!-- path to external executable (if applicable) -->
		<param name="ModuleExePath_1" value="null" />

		<!-- path to external executable (if applicable) -->
		<param name="ModuleExePath_2" value="null" />

		<!-- path to external executable (if applicable) -->
		<param name="ModuleExePath_3" value="null" />

		<!-- probability that a strategy is applied to a given a person.  despite its name, this really is a ``weight'' -->
		<param name="ModuleProbability_1" value="0.8" />

		<!-- probability that a strategy is applied to a given a person.  despite its name, this really is a ``weight'' -->
		<param name="ModuleProbability_2" value="0.2" />

		<!-- probability that a strategy is applied to a given a person.  despite its name, this really is a ``weight'' -->
		<param name="ModuleProbability_3" value="0.2" />

		<!-- name of strategy (if not full class name, resolved in StrategyManagerConfigLoader) -->
		<param name="Module_1" value="ChangeExpBeta" />

		<!-- name of strategy (if not full class name, resolved in StrategyManagerConfigLoader) -->
		<param name="Module_2" value="ReRoute" />

		<!-- name of strategy (if not full class name, resolved in StrategyManagerConfigLoader) -->
		<param name="Module_3" value="TimeAllocationMutator" />

		<!-- maximum number of plans per agent.  ``0'' means ``infinity''.  Currently (2010), ``5'' is a good number -->
		<param name="maxAgentPlanMemorySize" value="5" />

		<!-- name of PlanSelector for plans removal.  If not full class name, resolved in StrategyManagerConfigLoader.  default is `null', which eventually calls SelectWorstPlan. This is not a good choice from a discrete choice theoretical perspective. Alternatives, however, have not been systematically tested. kai, feb'12 -->
		<param name="planSelectorForRemoval" value="null" />
	</module>

<!-- ====================================================================== -->

	<module name="subtourModeChoice" >

		<!-- Defines the chain-based modes, seperated by commas -->
		<param name="chainBasedModes" value="car,bike" />

		<!-- Defines whether car availability must be considered or not. A agent has no car only if it has no license, or never access to a car -->
		<param name="considerCarAvailability" value="false" />

		<!-- Defines all the modes available, including chain-based modes, seperated by commas -->
		<param name="modes" value="car,pt,bike,walk" />
	</module>

<!-- ====================================================================== -->

	<module name="transit" >

		<!-- Comma-separated list of transportation modes that are handled as transit. Defaults to 'pt'. -->
		<param name="transitModes" value="pt" />

		<!-- Input file containing the transit schedule to be simulated. -->
		<param name="transitScheduleFile" value="null" />

		<!-- Input file containing the vehicles used by the departures in the transit schedule. -->
		<param name="vehiclesFile" value="null" />
	</module>

<!-- ====================================================================== -->

	<module name="transitRouter" >

		<!-- additional time the router allocates when a line switch happens. Can be interpreted as a 'safety' time that agents need to safely transfer from one line to another -->
		<param name="additionalTransferTime" value="0.0" />

		<!-- step size to increase searchRadius if no stops are found -->
		<param name="extensionRadius" value="200.0" />

		<!-- maximum beeline distance between stops that agents could transfer to by walking -->
		<param name="maxBeelineWalkConnectionDistance" value="100.0" />

		<!-- the radius in which stop locations are searched, given a start or target coordinate -->
		<param name="searchRadius" value="1000.0" />
	</module>

<!-- ====================================================================== -->

	<module name="travelTimeCalculator" >

		<!-- Transport modes that will be respected by the travel time collector. 'car' is default, which includes also bussed from the pt simulation module. Use this parameter in combination with 'filterModes' = true! -->
		<param name="analyzedModes" value="car" />

		<param name="calculateLinkToLinkTravelTimes" value="false" />
		<param name="calculateLinkTravelTimes" value="true" />

		<!-- If true, link travel times from legs performed on modes not included in the 'analyzedModes' parameter are ignored. -->
		<param name="filterModes" value="false" />

		<!-- How to deal with congested time bins that have no link entry events. `optimistic' assumes free speed (too optimistic); 'experimental_LastMile' is experimental and probably too pessimistic. -->
		<param name="travelTimeAggregator" value="optimistic" />

		<!-- The size of the time bin (in sec) into which the link travel times are aggregated for the router -->
		<param name="travelTimeBinSize" value="900" />

		<param name="travelTimeCalculator" value="TravelTimeCalculatorArray" />

		<!-- How to deal with link entry times at different positions during the time bin. Currently supported: average, linearinterpolation -->
		<param name="travelTimeGetter" value="average" />
	</module>

<!-- ====================================================================== -->

	<module name="vspExperimental" >

		<!-- String: minOfDurationAndEndTime tryEndTimeThenDuration endTimeOnly. Anything besides minOfDurationAndEndTime will internally use a different (simpler) version of the TimeAllocationMutator. -->
		<param name="activityDurationInterpretation" value="minOfDurationAndEndTime" />

		<!-- REQUIRED: file with HBEFA 3.1 fleet average cold emission factors -->
		<param name="averageFleetColdEmissionFactorsFile" value="null" />

		<!-- REQUIRED: file with HBEFA 3.1 fleet average warm emission factors -->
		<param name="averageFleetWarmEmissionFactorsFile" value="null" />

		<!-- (do not use) set chainBasedModes for subTourModeChoice by Yu. E.g. "car,bike", "car" -->
		<param name="chainBasedModes" value="car" />

		<!-- OPTIONAL: file with HBEFA 3.1 detailed cold emission factors -->
		<param name="detailedColdEmissionFactorsFile" value="null" />

		<!-- OPTIONAL: file with HBEFA 3.1 detailed warm emission factors -->
		<param name="detailedWarmEmissionFactorsFile" value="null" />

		<!-- REQUIRED: mapping from input road types to HBEFA 3.1 road type strings -->
		<param name="emissionRoadTypeMappingFile" value="null" />

		<!-- definition of a vehicle for every person (who is allowed to choose a vehicle in the simulation):
 - REQUIRED: vehicle type Id must start with the respective HbefaVehicleCategory followed by `;'
 - OPTIONAL: if detailed emission calculation is switched on, vehicle type Id should aditionally contain HbefaVehicleAttributes (`Technology;SizeClasse;EmConcept'), corresponding to the strings in detailedWarmEmissionFactorsFile -->
		<param name="emissionVehicleFile" value="null" />

		<!-- (do not use) Set this filename of MZ05 daily analysis -->
		<param name="inputMZ05File" value="" />

		<!-- (do not use except of you have to) There was a problem with pt interaction scoring.  Some people solved it by overwriting the parameters of the pt interaction activity type.  Doing this now throws an Exception.  If you still insist on doing this, set the following to true. -->
		<param name="isAbleToOverwritePtInteractionParams" value="false" />

		<param name="isGeneratingBoardingDeniedEvent" value="false" />

		<!-- if an approximation of the opportunity cost of time is included into the radius calculation for location choice.`true' will be faster, but it is an approximation.  Default is `true'; `false' is available for backwards compatibility. -->
		<param name="isUsingOpportunityCostOfTimeForLocationChoice" value="true" />

		<param name="logitScaleParamForPlansRemoval" value="1." />

		<!-- changes MATSim's global time format used in output files. Can be used to enforce writing fractional seconds e.g. in output_plans.  default is `hh:mm:ss' (because of backwards compatibility). see Time.java for possible formats -->
		<param name="matsimGlobalTimeformat" value="HH:mm:ss" />

		<!-- (do not use) set the traffic mode option for subTourModeChoice by Yu -->
		<param name="modes" value="car, pt" />

		<!-- (not tested) will remove plan attributes that are presumably not used, such as activityStartTime. default=false -->
		<param name="removingUnnecessaryPlanAttributes" value="false" />

		<!-- first iteration of MSA score averaging. The matsim theory department suggests to use this together with switching of choice set innovation, but it has not been tested yet. -->
		<param name="scoreMSAStartsAtIteration" value="null" />

		<!-- if true then detailed emission factor files must be provided! -->
		<param name="usingDetailedEmissionCalculation" value="false" />

		<!-- indicates if, for routing, the opportunity cost of time should be added to the mode-specific marginal utilities of time.
		Default is true; false is possible only for backwards compatibility.
		This is only a suggestion since there is (by matsim design) no way to enforce that mental modules obey this. -->
		<param name="usingOpportunityCostOfTimeForPtRouting" value="true" />

		<!-- Options: `ignore', `warn', `abort'.  Default: either `ignore' or `warn'.
		When violating VSP defaults, this results in nothing, warnings, or aborts.  Members of VSP should use `abort' or talk to kai. -->
		<param name="vspDefaultsCheckingLevel" value="ignore" />

		<!-- if true then writes output_events in output directory.  default is `false'. Will only work when lastIteration is multiple of events writing interval -->
		<param name="writingOutputEvents" value="false" />
	</module>

<!-- ====================================================================== -->

</config>

2014-07-19 14:46:27,692  INFO AbstractController:208 Complete config dump done.
2014-07-19 14:46:27,692  INFO AbstractController:209 Checking consistency of config...
2014-07-19 14:46:27,692  INFO AbstractController:211 Checking consistency of config done.
2014-07-19 14:46:27,723  INFO SnapshotWriterRegistrar:41 OTFVis snapshots will not be supported, as OTFVis is not part of the classpath.
2014-07-19 14:46:27,739  WARN OutputDirectoryHierarchy:164 ###########################################################
2014-07-19 14:46:27,739  WARN OutputDirectoryHierarchy:165 ### THE CONTROLER WILL OVERWRITE FILES IN:
2014-07-19 14:46:27,739  WARN OutputDirectoryHierarchy:166 ### output01
2014-07-19 14:46:27,739  WARN OutputDirectoryHierarchy:167 ###########################################################
2014-07-19 14:46:27,739  INFO ScenarioLoaderImpl:135 loading scenario from base directory: D:\Uni\Matsim\MatsimHA2\
2014-07-19 14:46:27,739  INFO ScenarioLoaderImpl:169 loading network from input/network_cleaned_simplified.xml
2014-07-19 14:46:27,739  INFO MatsimNetworkReader:83 using network_v1-reader.
2014-07-19 14:46:27,739  INFO MatsimXmlParser:215 Trying to load http://www.matsim.org/files/dtd/network_v1.dtd. In some cases (e.g. network interface up but no connection), this may take a bit.
2014-07-19 14:46:30,223  INFO ScenarioLoaderImpl:207 no facilities file set in config, therefore not loading any facilities.  This is not a problem except if you are using facilities
2014-07-19 14:46:30,232  INFO ScenarioLoaderImpl:220 loading population from input/plans.xml
2014-07-19 14:46:30,255  INFO MatsimPopulationReader:86 using population_v5-reader.
2014-07-19 14:46:30,255  INFO MatsimXmlParser:215 Trying to load http://www.matsim.org/files/dtd/population_v5.dtd. In some cases (e.g. network interface up but no connection), this may take a bit.
2014-07-19 14:46:30,286  INFO PopulationImpl:181  person # 1
2014-07-19 14:46:30,286  INFO PopulationImpl:181  person # 2
2014-07-19 14:46:30,286  INFO PopulationImpl:181  person # 4
2014-07-19 14:46:30,286  INFO PopulationImpl:181  person # 8
2014-07-19 14:46:30,286  INFO PopulationImpl:181  person # 16
2014-07-19 14:46:30,302  INFO PopulationImpl:181  person # 32
2014-07-19 14:46:30,302  INFO PopulationImpl:181  person # 64
2014-07-19 14:46:30,302  INFO PopulationImpl:181  person # 128
2014-07-19 14:46:30,318  INFO PopulationImpl:181  person # 256
2014-07-19 14:46:30,365  INFO PopulationImpl:181  person # 512
2014-07-19 14:46:30,411  INFO PopulationImpl:181  person # 1024
2014-07-19 14:46:30,474  INFO PopulationImpl:181  person # 2048
2014-07-19 14:46:30,599  INFO PopulationImpl:181  person # 4096
2014-07-19 14:46:30,661  INFO PopulationImpl:181  person # 5001
2014-07-19 14:46:30,661  INFO ScenarioLoaderImpl:236 no person-attributes file set in config, not loading any person attributes
2014-07-19 14:46:30,677  INFO CalcLinkStats:128  resetting `count' to zero.  This info is here since we want to check when this is happening during normal simulation runs.  kai, jan'11
2014-07-19 14:46:30,927  INFO EventsManagerImpl:160 adding Event-Handler: org.matsim.analysis.VolumesAnalyzer
2014-07-19 14:46:30,927  INFO EventsManagerImpl:164   org.matsim.core.api.experimental.events.handler.LinkLeaveEventHandler
2014-07-19 14:46:30,927  INFO EventsManagerImpl:241     > org.matsim.core.api.experimental.events.LinkLeaveEvent
2014-07-19 14:46:30,943  INFO EventsManagerImpl:172 
2014-07-19 14:46:30,943  INFO EventsManagerImpl:160 adding Event-Handler: org.matsim.analysis.CalcLegTimes
2014-07-19 14:46:30,943  INFO EventsManagerImpl:164   org.matsim.core.api.experimental.events.handler.AgentDepartureEventHandler
2014-07-19 14:46:30,943  INFO EventsManagerImpl:241     > org.matsim.core.api.experimental.events.AgentDepartureEvent
2014-07-19 14:46:30,943  INFO EventsManagerImpl:164   org.matsim.core.api.experimental.events.handler.AgentArrivalEventHandler
2014-07-19 14:46:30,943  INFO EventsManagerImpl:241     > org.matsim.core.api.experimental.events.AgentArrivalEvent
2014-07-19 14:46:30,943  INFO EventsManagerImpl:164   org.matsim.core.api.experimental.events.handler.ActivityEndEventHandler
2014-07-19 14:46:30,943  INFO EventsManagerImpl:241     > org.matsim.core.api.experimental.events.ActivityEndEvent
2014-07-19 14:46:30,943  INFO EventsManagerImpl:164   org.matsim.core.api.experimental.events.handler.ActivityStartEventHandler
2014-07-19 14:46:30,943  INFO EventsManagerImpl:241     > org.matsim.core.api.experimental.events.ActivityStartEvent
2014-07-19 14:46:30,943  INFO EventsManagerImpl:172 
2014-07-19 14:46:30,943  INFO EventsManagerImpl:160 adding Event-Handler: org.matsim.analysis.LegHistogram
2014-07-19 14:46:30,943  INFO EventsManagerImpl:164   org.matsim.core.api.experimental.events.handler.AgentDepartureEventHandler
2014-07-19 14:46:30,943  INFO EventsManagerImpl:241     > org.matsim.core.api.experimental.events.AgentDepartureEvent
2014-07-19 14:46:30,943  INFO EventsManagerImpl:164   org.matsim.core.api.experimental.events.handler.AgentArrivalEventHandler
2014-07-19 14:46:30,943  INFO EventsManagerImpl:241     > org.matsim.core.api.experimental.events.AgentArrivalEvent
2014-07-19 14:46:30,943  INFO EventsManagerImpl:164   org.matsim.core.api.experimental.events.handler.AgentStuckEventHandler
2014-07-19 14:46:30,958  INFO EventsManagerImpl:241     > org.matsim.core.api.experimental.events.AgentStuckEvent
2014-07-19 14:46:30,958  INFO EventsManagerImpl:172 
2014-07-19 14:46:30,958  INFO ControlerListenerManager:124 calling notifyStartup on org.matsim.counts.CountControlerListener
2014-07-19 14:46:30,958  INFO MatsimCountsReader:77 using counts_v1-reader.
2014-07-19 14:46:30,958  INFO MatsimXmlParser:215 Trying to load http://matsim.org/files/dtd/counts_v1.xsd. In some cases (e.g. network interface up but no connection), this may take a bit.
2014-07-19 14:46:31,255  INFO ControlerListenerManager:124 calling notifyStartup on org.matsim.analysis.TravelDistanceStats
2014-07-19 14:46:31,256  INFO ControlerListenerManager:124 calling notifyStartup on org.matsim.analysis.ScoreStats
2014-07-19 14:46:31,256  INFO ControlerListenerManager:128 all ControlerStartupListeners called.
2014-07-19 14:46:31,256  INFO AbstractController:203 config dump before iterations start
2014-07-19 14:46:31,256  INFO AbstractController:207 

<?xml version="1.0" encoding="UTF-8"?>
<!DOCTYPE config SYSTEM "http://www.matsim.org/files/dtd/config_v1.dtd">
<config>

<!-- ====================================================================== -->

	<module name="TimeAllocationMutator" >

		<!-- Defines how many seconds a time mutation can maximally shift a time. -->
		<param name="mutationRange" value="7200.0" />
	</module>

<!-- ====================================================================== -->

	<module name="controler" >
		<param name="enableLinkToLinkRouting" value="false" />

		<!-- Specifies the file format for writing events. Currently supported: txt, xml. Multiple values can be specified separated by commas (','). -->
		<param name="eventsFileFormat" value="xml" />

		<param name="firstIteration" value="0" />
		<param name="lastIteration" value="10" />

		<!-- Defines which mobility simulation will be used. Currently supported: queueSimulation qsim JDEQSim multimodalQSim 
Depending on the chosen mobsim, you'll have to add additional config modules to configure the corresponding mobsim.
For 'qsim', add a module 'qsim' to the config.
For 'queueSimulation', add a module 'simulation' to the config. -->
		<param name="mobsim" value="qsim" />

		<param name="outputDirectory" value="output01/" />

		<!-- The type of routing (least cost path) algorithm used, may have the values: Dijkstra, FastDijkstra, AStarLandmarks or FastAStarLandmarks -->
		<param name="routingAlgorithmType" value="Dijkstra" />

		<!-- An identifier for the current run which is used as prefix for output files and mentioned in output xml files etc. -->
		<param name="runId" value="null" />

		<!-- Comma-separated list of visualizer output file formats. `transims', `googleearth', and `otfvis'. -->
		<param name="snapshotFormat" value="" />

		<!-- iterationNumber % writeEventsInterval == 0 defines in which iterations events are written to a file. `0' disables events writing completely. -->
		<param name="writeEventsInterval" value="10" />

		<!-- iterationNumber % writePlansInterval == 0 defines (hopefully) in which iterations plans are written to a file. `0' disables plans writing completely.  Some plans in early iterations are always written -->
		<param name="writePlansInterval" value="10" />

		<!-- iterationNumber % writeSnapshotsInterval == 0 defines in which iterations snapshots are written to a file. `0' disables snapshots writing completely -->
		<param name="writeSnapshotsInterval" value="1" />
	</module>

<!-- ====================================================================== -->

	<module name="counts" >

		<!-- Specifies over how many iterations the link volumes should be averaged that are used for the counts comparison. Use 1 or 0 to only use the link volumes of a single iteration. This values cannot be larger than the value specified for writeCountsInterval -->
		<param name="averageCountsOverIterations" value="5" />

		<!-- factor by which to re-scale the simulated values.  necessary when simulation runs with something different from 100%.  needs to be adapted manually -->
		<param name="countsScaleFactor" value="100.0" />

		<!-- distance to distanceFilterCenterNode to include counting stations. The unit of distance is the Euclidean distance implied by the coordinate system -->
		<param name="distanceFilter" value="null" />

		<!-- node id for center node of distance filter -->
		<param name="distanceFilterCenterNode" value="null" />

		<!-- input file name to counts package -->
		<param name="inputCountsFile" value="input/counts.xml" />

		<!-- possible values: `html', `kml', `txt', `all' -->
		<param name="outputformat" value="kml" />

		<!-- Specifies how often the counts comparison should be calculated and written. -->
		<param name="writeCountsInterval" value="10" />
	</module>

<!-- ====================================================================== -->

	<module name="facilities" >
		<param name="inputFacilitiesFile" value="null" />
	</module>

<!-- ====================================================================== -->

	<module name="global" >
		<param name="coordinateSystem" value="Atlantis" />
		<param name="numberOfThreads" value="2" />
		<param name="randomSeed" value="4711" />
	</module>

<!-- ====================================================================== -->

	<module name="households" >
		<param name="inputFile" value="null" />
	</module>

<!-- ====================================================================== -->

	<module name="linkStats" >

		<!-- Specifies over how many iterations the link volumes should be averaged that are used for the link statistics. Use 1 or 0 to only use the link volumes of a single iteration. This values cannot be larger than the value specified for writeLinkStatsInterval -->
		<param name="averageLinkStatsOverIterations" value="5" />

		<!-- Specifies how often the link stats should be calculated and written. Use 0 to disable the generation of link stats. -->
		<param name="writeLinkStatsInterval" value="10" />
	</module>

<!-- ====================================================================== -->

	<module name="locationchoice" >
		<param name="algorithm" value="random" />
		<param name="analysisBinSize" value="20000.0" />
		<param name="analysisBoundary" value="200000.0" />
		<param name="centerNode" value="null" />
		<param name="destinationSamplePercent" value="100.0" />
		<param name="epsilonDistribution" value="gumbel" />
		<param name="epsilonScaleFactors" value="null" />
		<param name="fAttributesFileName" value="null" />
		<param name="fkValuesFile" value="null" />
		<param name="flexible_types" value="null" />
		<param name="idExclusion" value="2147483647" />
		<param name="maxDCScoreFile" value="null" />
		<param name="maxDistanceDCScore" value="-1.0" />
		<param name="maxRecursions" value="1" />
		<param name="pBetasFileName" value="null" />
		<param name="pkValuesFile" value="null" />
		<param name="planSelector" value="SelectExpBeta" />
		<param name="probChoiceSetSize" value="10" />
		<param name="radius" value="null" />
		<param name="randomSeed" value="221177" />
		<param name="recursionTravelSpeed" value="8.5" />
		<param name="recursionTravelSpeedChange" value="0.1" />
		<param name="restraintFcnExp" value="0.0" />
		<param name="restraintFcnFactor" value="0.0" />
		<param name="scaleFactor" value="1" />
		<param name="tt_approximationLevel" value="0" />
	</module>

<!-- ====================================================================== -->

	<module name="multimodal" >

		<!-- Use this, if your network is not multi modal. Links with free speeds that are lower than the specified cutoff value will be usable for walk and bike trips. -->
		<param name="createMultiModalNetwork" value="false" />

		<!-- Only used, if createMultiModalNetwork is enabled (set value in m/s). -->
		<param name="cuttoffValueForNonCarModes" value="22.22222222222222" />

		<param name="dropNonCarRoutes" value="false" />
		<param name="multiModalSimulationEnabled" value="false" />

		<!-- Use number of threads > 1 for parallel version using the specified number of threads. -->
		<param name="numberOfThreads" value="1" />

		<param name="simulatedModes" value="pt,walk,ride,bike" />
	</module>

<!-- ====================================================================== -->

	<module name="network" >
		<param name="inputChangeEventsFile" value="null" />
		<param name="inputNetworkFile" value="input/network_cleaned_simplified.xml" />
		<param name="laneDefinitionsFile" value="null" />
		<param name="timeVariantNetwork" value="false" />
	</module>

<!-- ====================================================================== -->

	<module name="otfvis" >

		<!-- The (initial) size of the agents.  Only a range of numbers is allowed, otherwise otfvis aborts rather ungracefully, or displays no agents at all. -->
		<param name="agentSize" value="120.0" />

		<!-- coloring scheme for otfvis.  Currently (2012) allowed values: standard bvg bvg2 byId gtfs -->
		<param name="coloringScheme" value="standard" />

		<!-- If non-moving items (e.g. agents at activities, at bus stops, etc.) should be showed.  May affect all non-moving items. -->
		<param name="drawNonMovingItems" value="false" />

		<param name="drawTransitFacilities" value="true" />
		<param name="drawTransitFacilityIds" value="true" />
		<param name="leftMouseFunc" value="Zoom" />

		<!-- The (initial) width of the links of the network. Use positive floating point values. -->
		<param name="linkWidth" value="30.0" />

		<!-- Link width is proportional to `numberOfLanes' or to `capacity'. -->
		<param name="linkwidthIsProportionalTo" value="numberOfLanes" />

		<!-- URL to get WMS tiles from. For a local GeoServer instance, use http://localhost:8080/geoserver/wms?service=WMS& -->
		<param name="mapBaseURL" value="" />

		<!-- The WMS layer to display. For GeoServer and a layer called clipped in workspace mz, use mz:clipped -->
		<param name="mapLayer" value="" />

		<!-- Render everything on top of map tiles. Default: From tiles.openstreetmap.org -->
		<param name="mapOverlayMode" value="false" />

		<param name="middleMouseFunc" value="Pan" />

		<!-- Shortens a link's start and end point in the visualization. -->
		<param name="nodeOffset" value="0.0" />

		<param name="rightMouseFunc" value="Select" />
		<param name="showTeleportation" value="false" />
	</module>

<!-- ====================================================================== -->

	<module name="parallelEventHandling" >

		<!-- estimated number of events during mobsim run, useful for configuration -->
		<param name="estimatedNumberOfEvents" value="null" />

		<!-- number of threads for parallel events handler.  0 or null means parallel events handler is disabled -->
		<param name="numberOfThreads" value="null" />
	</module>

<!-- ====================================================================== -->

	<module name="planCalcScore" >

		<!-- new_score = (1-learningRate)*old_score + learningRate * score_from_mobsim.  learning rates close to zero emulate score averaging, but slow down initial convergence -->
		<param name="learningRate" value="1.0" />

		<!-- logit model scale parameter. default: 2.  Has name and default value for historical reasons (see Bryan Raney's phd thesis).  Should be in strategyConfigGroup. -->
		<param name="BrainExpBeta" value="2.0" />

		<param name="PathSizeLogitBeta" value="1.0" />

		<!-- [utils/hr] utility for arriving late (i.e. after the latest start time).  normally negative -->
		<param name="lateArrival" value="-18.0" />

		<!-- [utils/hr] utility for departing early (i.e. before the earliest end time).  Probably implemented correctly, but not tested. -->
		<param name="earlyDeparture" value="-0.0" />

		<!-- [utils/hr] marginal utility of doing an activity.  normally positive.  also the opportunity cost of time if agent is doing nothing. -->
		<param name="performing" value="6.0" />

		<!-- [utils/hr] additional marginal utility of traveling by car.  normally negative.  this comes on top of the opportunity cost of time -->
		<param name="traveling" value="-6.0" />

		<!-- [utils/hr] additional marginal utility offset of traveling by pt.  normally negative.  this comes on top of the opportunity cost of time -->
		<param name="travelingPt" value="-6.0" />

		<!-- [utils/hr] additional marginal utility offset of traveling by foot.  normally negative.  this comes on top of the opportunity cost of time.  also see marginalUtlOfDistanceWalk -->
		<param name="travelingWalk" value="-6.0" />

		<param name="travelingOther" value="-6.0" />
		<param name="travelingBike" value="-6.0" />

		<!-- [utils/hr] utility offset for waiting.  this comes on top of the opportunity cost of time.  Probably implemented correctly, but not tested. -->
		<param name="waiting" value="-0.0" />

		<!-- [utils/hr] utility offset for waiting for a pt vehicle.  this comes on top of the opportunity cost of time. Default: if not set explicitly, it is equal to traveling_pt!!! -->
		<param name="waitingPt" value="-6.0" />

		<!-- [utils/m] utility of walking per m, normally negative.  this is on top of the time (dis)utility. -->
		<param name="marginalUtlOfDistanceWalk" value="0.0" />

		<param name="marginalUtlOfDistanceOther" value="0.0" />

		<!-- [utils/unit_of_money] conversion of money (e.g. toll, distance cost) into utils -->
		<param name="marginalUtilityOfMoney" value="1.0" />

		<!-- [unit_of_money/m] conversion of car distance into money. Probably needs to be negative to work. -->
		<param name="monetaryDistanceCostRateCar" value="0.0" />

		<!-- [unit_of_money/m] conversion of pt distance into money. Probably needs to be negative to work. -->
		<param name="monetaryDistanceCostRatePt" value="0.0" />

		<!-- [utils] utility of switching a line (= transfer penalty).  Normally negative -->
		<param name="utilityOfLineSwitch" value="-1.0" />

		<!-- [utils] alternative-specific constant for car.  no guarantee that this is used anywhere. default=0 to be backwards compatible for the time being -->
		<param name="constantCar" value="0.0" />

		<!-- [utils] alternative-specific constant for walk.  no guarantee that this is used anywhere. default=0 to be backwards compatible for the time being -->
		<param name="constantWalk" value="0.0" />

		<param name="constantOther" value="0.0" />

		<!-- [utils] alternative-specific constant for bike.  no guarantee that this is used anywhere. default=0 to be backwards compatible for the time being -->
		<param name="constantBike" value="0.0" />

		<!-- [utils] alternative-specific constant for pt.  no guarantee that this is used anywhere. default=0 to be backwards compatible for the time being -->
		<param name="constantPt" value="0.0" />

		<!-- write a plans file in each iteration directory which contains what each agent actually did, and the score it received. -->
		<param name="writeExperiencedPlans" value="false" />

		<!--  ============================  -->
		<param name="activityType_0" value="home" />

		<param name="activityPriority_0" value="1.0" />
		<param name="activityTypicalDuration_0" value="12:00:00" />
		<param name="activityMinimalDuration_0" value="undefined" />
		<param name="activityOpeningTime_0" value="undefined" />
		<param name="activityLatestStartTime_0" value="undefined" />
		<param name="activityEarliestEndTime_0" value="undefined" />
		<param name="activityClosingTime_0" value="undefined" />

		<!--  ============================  -->
		<param name="activityType_1" value="work" />

		<param name="activityPriority_1" value="1.0" />
		<param name="activityTypicalDuration_1" value="08:00:00" />
		<param name="activityMinimalDuration_1" value="undefined" />
		<param name="activityOpeningTime_1" value="05:00:00" />
		<param name="activityLatestStartTime_1" value="10:30:00" />
		<param name="activityEarliestEndTime_1" value="undefined" />
		<param name="activityClosingTime_1" value="20:00:00" />
	</module>

<!-- ====================================================================== -->

	<module name="plans" >

		<!-- Path to a file containing person attributes (required file format: ObjectAttributes). -->
		<param name="inputPersonAttributesFile" value="null" />

		<param name="inputPlansFile" value="input/plans.xml" />

		<!-- Defines how routes are stored in memory. Currently supported: LinkNetworkRoute, CompressedNetworkRoute. -->
		<param name="networkRouteType" value="LinkNetworkRoute" />
	</module>

<!-- ====================================================================== -->

	<module name="planscalcroute" >

		<!-- factor with which beeline distances (and therefore times) are multiplied in order to obtain an estimate of the network distances/times.  Default is something like 1.3 -->
		<param name="beelineDistanceFactor" value="1.3" />

		<!-- All the modes for which the router is supposed to generate network routes (like car) -->
		<param name="networkModes" value="car,ride" />

		<!-- Free-speed factor for a teleported mode based on freespeed: freespeedFactor * <freespeed car travel time>. Insert a line like this for every such mode. freespeedFactor wins over teleportedModeSpeed, if both are set (says michaz). -->
		<param name="teleportedModeFreespeedFactor_pt" value="2.0" />
	</module>

<!-- ====================================================================== -->

	<module name="ptCounts" >

		<!-- factor by which to re-scale the simulated values.  necessary when simulation runs with something different from 100%.  needs to be adapted manually -->
		<param name="countsScaleFactor" value="1.0" />

		<!-- distance to distanceFilterCenterNode to include counting stations. The unit of distance is the Euclidean distance implied by the coordinate system -->
		<param name="distanceFilter" value="null" />

		<!-- node id for center node of distance filter -->
		<param name="distanceFilterCenterNode" value="null" />

		<!-- input file containing the alighting (getting off) counts for pt -->
		<param name="inputAlightCountsFile" value="null" />

		<!-- input file containing the boarding (getting on) counts for pt -->
		<param name="inputBoardCountsFile" value="null" />

		<!-- input file containing the occupancy counts for pt -->
		<param name="inputOccupancyCountsFile" value="null" />

		<!-- possible values: `html', `kml', `txt', `all' -->
		<param name="outputformat" value="null" />

		<!-- every how many iterations (starting with 0) counts comparisons are generated -->
		<param name="ptCountsInterval" value="10" />
	</module>

<!-- ====================================================================== -->

	<module name="qsim" >
		<param name="endTime" value="24:00:00" />
		<param name="flowCapacityFactor" value="1.0" />

		<!-- decides if waiting vehicles enter the network after or before the already driving vehicles were moved. Default: false -->
		<param name="insertingWaitingVehiclesBeforeDrivingVehicles" value="false" />

		<!-- Defines which mode should be the qsim `main' (=congested) mode. Technically, this is the mode that the departure handler of the netsimengine handles.  Effective cell size, effective lane width, flow capacity factor, and storage capacity factor need to be set with diligence.  Needs to be a vehicular mode to make sense. -->
		<param name="mainMode" value="car" />

		<!-- Use number of threads > 1 for parallel version using the specified number of threads -->
		<param name="numberOfThreads" value="1" />

		<!-- Boolean. `true': stuck vehicles are removed, aborting the plan; `false': stuck vehicles are forced into the next link. `false' is probably the better choice. -->
		<param name="removeStuckVehicles" value="false" />

		<!-- `maxOfStarttimeAndEarliestActivityEnd' (default behavior) or `onlyUseStarttime' -->
		<param name="simStarttimeInterpretation" value="maxOfStarttimeAndEarliestActivityEnd" />

		<!-- snapshotStyle: `equiDist' (vehicles equidistant on link) or `queue' (vehicles queued at end of link) or `withHolesExperimental' (experimental!!) -->
		<param name="snapshotStyle" value="equiDist" />

		<param name="snapshotperiod" value="00:00:00" />
		<param name="startTime" value="00:00:00" />
		<param name="storageCapacityFactor" value="1.0" />

		<!-- time in seconds.  Time after which the frontmost vehicle on a link is called `stuck' if it does not move. -->
		<param name="stuckTime" value="10.0" />

		<param name="timeStepSize" value="00:00:01" />

		<!-- `queue' for the standard queue model, `withHolesExperimental' (experimental!!) for the queue model with holes -->
		<param name="trafficDynamics" value="queue" />

		<!-- Defines what happens if an agent wants to depart, but the specified vehicle is not available. One of: teleport, wait, exception -->
		<param name="vehicleBehavior" value="teleport" />
	</module>

<!-- ====================================================================== -->

	<module name="roadpricing" >
	</module>

<!-- ====================================================================== -->

	<module name="scenario" >

		<!-- Set this parameter to true if households should be used, false if not. -->
		<param name="useHouseholds" value="false" />

		<!-- Set this parameter to true if knowledge should be used, false if not. -->
		<param name="useKnowledge" value="true" />

		<!-- Set this parameter to true if lanes should be used, false if not. -->
		<param name="useLanes" value="false" />

		<!-- Set this parameter to true if roadpricing should be used, false if not. -->
		<param name="useRoadpricing" value="false" />

		<!-- Set this parameter to true if signal systems should be used, false if not. -->
		<param name="useSignalsystems" value="false" />

		<!-- Set this parameter to true if transit should be simulated, false if not. -->
		<param name="useTransit" value="false" />

		<!-- Set this parameter to true if vehicles should be used, false if not. -->
		<param name="useVehicles" value="false" />
	</module>

<!-- ====================================================================== -->

	<module name="signalsystems" >
		<param name="ambertimes" value="null" />
		<param name="intergreentimes" value="null" />
		<param name="signalcontrol" value="null" />
		<param name="signalgroups" value="null" />
		<param name="signalsystems" value="null" />
		<param name="useAmbertimes" value="false" />
		<param name="useIntergreentimes" value="false" />
	</module>

<!-- ====================================================================== -->

	<module name="strategy" >
		<param name="ExternalExeConfigTemplate" value="null" />
		<param name="ExternalExeTimeOut" value="3600" />
		<param name="ExternalExeTmpFileRootDir" value="null" />

		<!-- iteration after which module will be disabled.  most useful for ``innovative'' strategies (new routes, new times, ...) -->
		<param name="ModuleDisableAfterIteration_1" value="null" />

		<!-- iteration after which module will be disabled.  most useful for ``innovative'' strategies (new routes, new times, ...) -->
		<param name="ModuleDisableAfterIteration_2" value="80" />

		<!-- iteration after which module will be disabled.  most useful for ``innovative'' strategies (new routes, new times, ...) -->
		<param name="ModuleDisableAfterIteration_3" value="null" />

		<!-- path to external executable (if applicable) -->
		<param name="ModuleExePath_1" value="null" />

		<!-- path to external executable (if applicable) -->
		<param name="ModuleExePath_2" value="null" />

		<!-- path to external executable (if applicable) -->
		<param name="ModuleExePath_3" value="null" />

		<!-- probability that a strategy is applied to a given a person.  despite its name, this really is a ``weight'' -->
		<param name="ModuleProbability_1" value="0.8" />

		<!-- probability that a strategy is applied to a given a person.  despite its name, this really is a ``weight'' -->
		<param name="ModuleProbability_2" value="0.2" />

		<!-- probability that a strategy is applied to a given a person.  despite its name, this really is a ``weight'' -->
		<param name="ModuleProbability_3" value="0.2" />

		<!-- name of strategy (if not full class name, resolved in StrategyManagerConfigLoader) -->
		<param name="Module_1" value="ChangeExpBeta" />

		<!-- name of strategy (if not full class name, resolved in StrategyManagerConfigLoader) -->
		<param name="Module_2" value="ReRoute" />

		<!-- name of strategy (if not full class name, resolved in StrategyManagerConfigLoader) -->
		<param name="Module_3" value="TimeAllocationMutator" />

		<!-- maximum number of plans per agent.  ``0'' means ``infinity''.  Currently (2010), ``5'' is a good number -->
		<param name="maxAgentPlanMemorySize" value="5" />

		<!-- name of PlanSelector for plans removal.  If not full class name, resolved in StrategyManagerConfigLoader.  default is `null', which eventually calls SelectWorstPlan. This is not a good choice from a discrete choice theoretical perspective. Alternatives, however, have not been systematically tested. kai, feb'12 -->
		<param name="planSelectorForRemoval" value="null" />
	</module>

<!-- ====================================================================== -->

	<module name="subtourModeChoice" >

		<!-- Defines the chain-based modes, seperated by commas -->
		<param name="chainBasedModes" value="car,bike" />

		<!-- Defines whether car availability must be considered or not. A agent has no car only if it has no license, or never access to a car -->
		<param name="considerCarAvailability" value="false" />

		<!-- Defines all the modes available, including chain-based modes, seperated by commas -->
		<param name="modes" value="car,pt,bike,walk" />
	</module>

<!-- ====================================================================== -->

	<module name="transit" >

		<!-- Comma-separated list of transportation modes that are handled as transit. Defaults to 'pt'. -->
		<param name="transitModes" value="pt" />

		<!-- Input file containing the transit schedule to be simulated. -->
		<param name="transitScheduleFile" value="null" />

		<!-- Input file containing the vehicles used by the departures in the transit schedule. -->
		<param name="vehiclesFile" value="null" />
	</module>

<!-- ====================================================================== -->

	<module name="transitRouter" >

		<!-- additional time the router allocates when a line switch happens. Can be interpreted as a 'safety' time that agents need to safely transfer from one line to another -->
		<param name="additionalTransferTime" value="0.0" />

		<!-- step size to increase searchRadius if no stops are found -->
		<param name="extensionRadius" value="200.0" />

		<!-- maximum beeline distance between stops that agents could transfer to by walking -->
		<param name="maxBeelineWalkConnectionDistance" value="100.0" />

		<!-- the radius in which stop locations are searched, given a start or target coordinate -->
		<param name="searchRadius" value="1000.0" />
	</module>

<!-- ====================================================================== -->

	<module name="travelTimeCalculator" >

		<!-- Transport modes that will be respected by the travel time collector. 'car' is default, which includes also bussed from the pt simulation module. Use this parameter in combination with 'filterModes' = true! -->
		<param name="analyzedModes" value="car" />

		<param name="calculateLinkToLinkTravelTimes" value="false" />
		<param name="calculateLinkTravelTimes" value="true" />

		<!-- If true, link travel times from legs performed on modes not included in the 'analyzedModes' parameter are ignored. -->
		<param name="filterModes" value="false" />

		<!-- How to deal with congested time bins that have no link entry events. `optimistic' assumes free speed (too optimistic); 'experimental_LastMile' is experimental and probably too pessimistic. -->
		<param name="travelTimeAggregator" value="optimistic" />

		<!-- The size of the time bin (in sec) into which the link travel times are aggregated for the router -->
		<param name="travelTimeBinSize" value="900" />

		<param name="travelTimeCalculator" value="TravelTimeCalculatorArray" />

		<!-- How to deal with link entry times at different positions during the time bin. Currently supported: average, linearinterpolation -->
		<param name="travelTimeGetter" value="average" />
	</module>

<!-- ====================================================================== -->

	<module name="vspExperimental" >

		<!-- String: minOfDurationAndEndTime tryEndTimeThenDuration endTimeOnly. Anything besides minOfDurationAndEndTime will internally use a different (simpler) version of the TimeAllocationMutator. -->
		<param name="activityDurationInterpretation" value="minOfDurationAndEndTime" />

		<!-- REQUIRED: file with HBEFA 3.1 fleet average cold emission factors -->
		<param name="averageFleetColdEmissionFactorsFile" value="null" />

		<!-- REQUIRED: file with HBEFA 3.1 fleet average warm emission factors -->
		<param name="averageFleetWarmEmissionFactorsFile" value="null" />

		<!-- (do not use) set chainBasedModes for subTourModeChoice by Yu. E.g. "car,bike", "car" -->
		<param name="chainBasedModes" value="car" />

		<!-- OPTIONAL: file with HBEFA 3.1 detailed cold emission factors -->
		<param name="detailedColdEmissionFactorsFile" value="null" />

		<!-- OPTIONAL: file with HBEFA 3.1 detailed warm emission factors -->
		<param name="detailedWarmEmissionFactorsFile" value="null" />

		<!-- REQUIRED: mapping from input road types to HBEFA 3.1 road type strings -->
		<param name="emissionRoadTypeMappingFile" value="null" />

		<!-- definition of a vehicle for every person (who is allowed to choose a vehicle in the simulation):
 - REQUIRED: vehicle type Id must start with the respective HbefaVehicleCategory followed by `;'
 - OPTIONAL: if detailed emission calculation is switched on, vehicle type Id should aditionally contain HbefaVehicleAttributes (`Technology;SizeClasse;EmConcept'), corresponding to the strings in detailedWarmEmissionFactorsFile -->
		<param name="emissionVehicleFile" value="null" />

		<!-- (do not use) Set this filename of MZ05 daily analysis -->
		<param name="inputMZ05File" value="" />

		<!-- (do not use except of you have to) There was a problem with pt interaction scoring.  Some people solved it by overwriting the parameters of the pt interaction activity type.  Doing this now throws an Exception.  If you still insist on doing this, set the following to true. -->
		<param name="isAbleToOverwritePtInteractionParams" value="false" />

		<param name="isGeneratingBoardingDeniedEvent" value="false" />

		<!-- if an approximation of the opportunity cost of time is included into the radius calculation for location choice.`true' will be faster, but it is an approximation.  Default is `true'; `false' is available for backwards compatibility. -->
		<param name="isUsingOpportunityCostOfTimeForLocationChoice" value="true" />

		<param name="logitScaleParamForPlansRemoval" value="1." />

		<!-- changes MATSim's global time format used in output files. Can be used to enforce writing fractional seconds e.g. in output_plans.  default is `hh:mm:ss' (because of backwards compatibility). see Time.java for possible formats -->
		<param name="matsimGlobalTimeformat" value="HH:mm:ss" />

		<!-- (do not use) set the traffic mode option for subTourModeChoice by Yu -->
		<param name="modes" value="car, pt" />

		<!-- (not tested) will remove plan attributes that are presumably not used, such as activityStartTime. default=false -->
		<param name="removingUnnecessaryPlanAttributes" value="false" />

		<!-- first iteration of MSA score averaging. The matsim theory department suggests to use this together with switching of choice set innovation, but it has not been tested yet. -->
		<param name="scoreMSAStartsAtIteration" value="null" />

		<!-- if true then detailed emission factor files must be provided! -->
		<param name="usingDetailedEmissionCalculation" value="false" />

		<!-- indicates if, for routing, the opportunity cost of time should be added to the mode-specific marginal utilities of time.
		Default is true; false is possible only for backwards compatibility.
		This is only a suggestion since there is (by matsim design) no way to enforce that mental modules obey this. -->
		<param name="usingOpportunityCostOfTimeForPtRouting" value="true" />

		<!-- Options: `ignore', `warn', `abort'.  Default: either `ignore' or `warn'.
		When violating VSP defaults, this results in nothing, warnings, or aborts.  Members of VSP should use `abort' or talk to kai. -->
		<param name="vspDefaultsCheckingLevel" value="ignore" />

		<!-- if true then writes output_events in output directory.  default is `false'. Will only work when lastIteration is multiple of events writing interval -->
		<param name="writingOutputEvents" value="false" />
	</module>

<!-- ====================================================================== -->

</config>

2014-07-19 14:46:31,272  INFO AbstractController:208 Complete config dump done.
2014-07-19 14:46:31,272  INFO AbstractController:209 Checking consistency of config...
2014-07-19 14:46:31,272  INFO AbstractController:211 Checking consistency of config done.
2014-07-19 14:46:31,272  INFO EventsManagerImpl:160 adding Event-Handler: org.matsim.core.trafficmonitoring.TravelTimeCalculator
2014-07-19 14:46:31,272  INFO EventsManagerImpl:164   org.matsim.core.api.experimental.events.handler.LinkEnterEventHandler
2014-07-19 14:46:31,272  INFO EventsManagerImpl:241     > org.matsim.core.api.experimental.events.LinkEnterEvent
2014-07-19 14:46:31,272  INFO EventsManagerImpl:164   org.matsim.core.api.experimental.events.handler.LinkLeaveEventHandler
2014-07-19 14:46:31,272  INFO EventsManagerImpl:241     > org.matsim.core.api.experimental.events.LinkLeaveEvent
2014-07-19 14:46:31,272  INFO EventsManagerImpl:164   org.matsim.core.api.experimental.events.handler.AgentDepartureEventHandler
2014-07-19 14:46:31,272  INFO EventsManagerImpl:241     > org.matsim.core.api.experimental.events.AgentDepartureEvent
2014-07-19 14:46:31,272  INFO EventsManagerImpl:164   org.matsim.core.api.experimental.events.handler.AgentArrivalEventHandler
2014-07-19 14:46:31,272  INFO EventsManagerImpl:241     > org.matsim.core.api.experimental.events.AgentArrivalEvent
2014-07-19 14:46:31,272  INFO EventsManagerImpl:164   org.matsim.core.events.handler.VehicleArrivesAtFacilityEventHandler
2014-07-19 14:46:31,272  INFO EventsManagerImpl:241     > org.matsim.core.api.experimental.events.VehicleArrivesAtFacilityEvent
2014-07-19 14:46:31,272  INFO EventsManagerImpl:164   org.matsim.core.events.handler.TransitDriverStartsEventHandler
2014-07-19 14:46:31,272  INFO EventsManagerImpl:241     > org.matsim.core.api.experimental.events.TransitDriverStartsEvent
2014-07-19 14:46:31,272  INFO EventsManagerImpl:164   org.matsim.core.api.experimental.events.handler.AgentStuckEventHandler
2014-07-19 14:46:31,819  INFO EventsManagerImpl:241     > org.matsim.core.api.experimental.events.AgentStuckEvent
2014-07-19 14:46:31,819  INFO EventsManagerImpl:172 
2014-07-19 14:46:31,959  INFO NetworkImpl:489 building QuadTree for nodes: xrange(615412.5662264617,729186.364161173); yrange(6513246.242810483,6679754.241279298)
2014-07-19 14:46:31,991  INFO NetworkImpl:498 Building QuadTree took 0.063 seconds.
2014-07-19 14:46:32,162  INFO Counter:51 [PersonPrepareForSim] handled person # 1
2014-07-19 14:46:32,462  INFO Counter:51 [PersonPrepareForSim] handled person # 2
2014-07-19 14:46:32,529  INFO Counter:51 [PersonPrepareForSim] handled person # 4
2014-07-19 14:46:32,601  INFO Counter:51 [PersonPrepareForSim] handled person # 8
2014-07-19 14:46:32,911  INFO Counter:51 [PersonPrepareForSim] handled person # 16
2014-07-19 14:46:33,510  INFO Counter:51 [PersonPrepareForSim] handled person # 32
2014-07-19 14:46:34,767  INFO Counter:51 [PersonPrepareForSim] handled person # 64
2014-07-19 14:46:40,153  INFO Counter:51 [PersonPrepareForSim] handled person # 128
2014-07-19 14:46:47,139  INFO Counter:51 [PersonPrepareForSim] handled person # 256
2014-07-19 14:47:02,995  INFO Counter:51 [PersonPrepareForSim] handled person # 512
2014-07-19 14:47:29,584  INFO Counter:51 [PersonPrepareForSim] handled person # 1024
2014-07-19 14:48:13,111  INFO Counter:51 [PersonPrepareForSim] handled person # 2048
2014-07-19 14:49:38,037  INFO Counter:51 [PersonPrepareForSim] handled person # 4096
2014-07-19 14:50:29,423  INFO Counter:57 [PersonPrepareForSim] handled person # 5001
2014-07-19 14:50:29,432  INFO AbstractController:156 ###################################################
2014-07-19 14:50:29,432  INFO AbstractController:157 ### ITERATION 0 BEGINS
2014-07-19 14:50:29,432  INFO OutputDirectoryHierarchy:144 Iteration directory output01/ITERS/it.0 exists already.
2014-07-19 14:50:29,432  INFO ControlerListenerManager:159 calling notifyIterationStarts on org.matsim.core.controler.corelisteners.PlansScoring
2014-07-19 14:50:29,455  INFO EventsManagerImpl:160 adding Event-Handler: org.matsim.core.scoring.EventsToScore
2014-07-19 14:50:29,455  INFO EventsManagerImpl:164   org.matsim.core.events.handler.BasicEventHandler
2014-07-19 14:50:29,455  INFO EventsManagerImpl:241     > org.matsim.core.api.experimental.events.Event
2014-07-19 14:50:29,455  INFO EventsManagerImpl:172 
2014-07-19 14:50:29,455  INFO ControlerListenerManager:164 calling notifyIterationStarts on org.matsim.core.controler.corelisteners.LinkStatsControlerListener
2014-07-19 14:50:29,455  INFO ControlerListenerManager:164 calling notifyIterationStarts on org.matsim.core.controler.corelisteners.LegHistogramListener
2014-07-19 14:50:29,455  INFO ControlerListenerManager:167 [it.0] all ControlerIterationStartsListeners called.
2014-07-19 14:50:29,455  INFO ControlerListenerManager:247 calling notifyBeforeMobsim on org.matsim.core.controler.corelisteners.EventsHandling
2014-07-19 14:50:29,455  INFO EventsManagerImpl:195 resetting Event-Handlers
2014-07-19 14:50:29,455  INFO EventsManagerImpl:202   org.matsim.analysis.VolumesAnalyzer
2014-07-19 14:50:29,455  INFO EventsManagerImpl:202   org.matsim.core.trafficmonitoring.TravelTimeCalculator
2014-07-19 14:50:29,612  INFO EventsManagerImpl:202   org.matsim.analysis.CalcLegTimes
2014-07-19 14:50:29,612  INFO EventsManagerImpl:202   org.matsim.analysis.LegHistogram
2014-07-19 14:50:29,612  INFO EventsManagerImpl:202   org.matsim.core.scoring.EventsToScore
2014-07-19 14:50:29,643  INFO EventsManagerImpl:160 adding Event-Handler: org.matsim.core.events.algorithms.EventWriterXML
2014-07-19 14:50:29,643  INFO EventsManagerImpl:164   org.matsim.core.events.algorithms.EventWriter
2014-07-19 14:50:29,643  INFO EventsManagerImpl:164   org.matsim.core.events.handler.BasicEventHandler
2014-07-19 14:50:29,643  INFO EventsManagerImpl:241     > org.matsim.core.api.experimental.events.Event
2014-07-19 14:50:29,643  INFO EventsManagerImpl:172 
2014-07-19 14:50:29,643  INFO ControlerListenerManager:247 calling notifyBeforeMobsim on org.matsim.core.controler.corelisteners.PlansDumping
2014-07-19 14:50:29,643  INFO PlansDumping:77 dumping plans...
2014-07-19 14:50:29,658  INFO Counter:51 [PopulationWriter] dumped person # 1
2014-07-19 14:50:29,658  INFO Counter:51 [PopulationWriter] dumped person # 2
2014-07-19 14:50:29,658  INFO Counter:51 [PopulationWriter] dumped person # 4
2014-07-19 14:50:29,658  INFO Counter:51 [PopulationWriter] dumped person # 8
2014-07-19 14:50:29,658  INFO Counter:51 [PopulationWriter] dumped person # 16
2014-07-19 14:50:29,658  INFO Counter:51 [PopulationWriter] dumped person # 32
2014-07-19 14:50:29,674  INFO Counter:51 [PopulationWriter] dumped person # 64
2014-07-19 14:50:29,690  INFO Counter:51 [PopulationWriter] dumped person # 128
2014-07-19 14:50:29,705  INFO Counter:51 [PopulationWriter] dumped person # 256
2014-07-19 14:50:29,752  INFO Counter:51 [PopulationWriter] dumped person # 512
2014-07-19 14:50:29,830  INFO Counter:51 [PopulationWriter] dumped person # 1024
2014-07-19 14:50:29,987  INFO Counter:51 [PopulationWriter] dumped person # 2048
2014-07-19 14:50:30,268  INFO Counter:51 [PopulationWriter] dumped person # 4096
2014-07-19 14:50:30,393  INFO Counter:57 [PopulationWriter] dumped person # 5001
2014-07-19 14:50:30,393  INFO PopulationWriter:173 Population written to: output01/ITERS/it.0/0.plans.xml.gz
2014-07-19 14:50:30,393  INFO PlansDumping:79 finished plans dump.
2014-07-19 14:50:30,393  INFO ControlerListenerManager:255 [it.0] all ControlerBeforeMobsimListeners called.
[...]
2014-07-19 14:58:43,334  INFO EventsManagerImpl:195 resetting Event-Handlers
2014-07-19 14:58:43,334  INFO EventsManagerImpl:202   org.matsim.analysis.VolumesAnalyzer
2014-07-19 14:58:43,334  INFO EventsManagerImpl:202   org.matsim.core.trafficmonitoring.TravelTimeCalculator
2014-07-19 14:58:43,496  INFO EventsManagerImpl:202   org.matsim.analysis.CalcLegTimes
2014-07-19 14:58:43,496  INFO EventsManagerImpl:202   org.matsim.analysis.LegHistogram
2014-07-19 14:58:43,496  INFO EventsManagerImpl:202   org.matsim.core.scoring.EventsToScore
2014-07-19 14:58:43,496  INFO EventsManagerImpl:160 adding Event-Handler: org.matsim.core.events.algorithms.EventWriterXML
2014-07-19 14:58:43,496  INFO EventsManagerImpl:164   org.matsim.core.events.algorithms.EventWriter
2014-07-19 14:58:43,496  INFO EventsManagerImpl:164   org.matsim.core.events.handler.BasicEventHandler
2014-07-19 14:58:43,496  INFO EventsManagerImpl:241     > org.matsim.core.api.experimental.events.Event
2014-07-19 14:58:43,496  INFO EventsManagerImpl:172 
2014-07-19 14:58:43,496  INFO ControlerListenerManager:247 calling notifyBeforeMobsim on org.matsim.core.controler.corelisteners.PlansDumping
2014-07-19 14:58:43,496  INFO PlansDumping:77 dumping plans...
2014-07-19 14:58:43,511  INFO Counter:51 [PopulationWriter] dumped person # 1
2014-07-19 14:58:43,511  INFO Counter:51 [PopulationWriter] dumped person # 2
2014-07-19 14:58:43,511  INFO Counter:51 [PopulationWriter] dumped person # 4
2014-07-19 14:58:43,511  INFO Counter:51 [PopulationWriter] dumped person # 8
2014-07-19 14:58:43,511  INFO Counter:51 [PopulationWriter] dumped person # 16
2014-07-19 14:58:43,527  INFO Counter:51 [PopulationWriter] dumped person # 32
2014-07-19 14:58:43,527  INFO Counter:51 [PopulationWriter] dumped person # 64
2014-07-19 14:58:43,574  INFO Counter:51 [PopulationWriter] dumped person # 128
2014-07-19 14:58:43,621  INFO Counter:51 [PopulationWriter] dumped person # 256
2014-07-19 14:58:43,730  INFO Counter:51 [PopulationWriter] dumped person # 512
2014-07-19 14:58:43,933  INFO Counter:51 [PopulationWriter] dumped person # 1024
2014-07-19 14:58:44,308  INFO Counter:51 [PopulationWriter] dumped person # 2048
2014-07-19 14:58:45,106  INFO Counter:51 [PopulationWriter] dumped person # 4096
2014-07-19 14:58:45,465  INFO Counter:57 [PopulationWriter] dumped person # 5001
2014-07-19 14:58:45,465  INFO PopulationWriter:173 Population written to: output01/ITERS/it.10/10.plans.xml.gz
2014-07-19 14:58:45,465  INFO PlansDumping:79 finished plans dump.
2014-07-19 14:58:45,468  INFO ControlerListenerManager:255 [it.10] all ControlerBeforeMobsimListeners called.
2014-07-19 14:58:45,468  INFO QSim:169 Using QSim...
2014-07-19 14:58:46,138  INFO MobsimListenerManager:58 calling addQueueSimulationListener
2014-07-19 14:58:46,138  INFO MobsimListenerManager:62   assigned class org.matsim.core.mobsim.framework.listeners.MobsimListener to interface org.matsim.core.mobsim.framework.listeners.MobsimAfterSimStepListener
2014-07-19 14:58:46,138  INFO MobsimListenerManager:62   assigned class org.matsim.core.mobsim.framework.listeners.MobsimListener to interface org.matsim.core.mobsim.framework.listeners.MobsimInitializedListener
2014-07-19 14:58:46,138  INFO MobsimListenerManager:62   assigned class org.matsim.core.mobsim.framework.listeners.MobsimListener to interface org.matsim.core.mobsim.framework.listeners.MobsimBeforeCleanupListener
2014-07-19 14:58:46,138  INFO MobsimListenerManager:62   assigned class org.matsim.core.mobsim.framework.listeners.MobsimListener to interface org.matsim.core.mobsim.framework.listeners.MobsimListener
2014-07-19 14:58:46,138  INFO MobsimListenerManager:62   assigned class org.matsim.core.mobsim.framework.listeners.MobsimListener to interface org.matsim.vis.snapshotwriters.SnapshotWriterManager
2014-07-19 14:58:46,185  INFO EventsManagerImpl:153  event # 1
2014-07-19 14:58:46,185  INFO EventsManagerImpl:153  event # 2
2014-07-19 14:58:46,185  INFO EventsManagerImpl:153  event # 4
2014-07-19 14:58:46,185  INFO QNetsimEngine:298 SIMULATION (QNetsimEngine) AT 00:23:09 : #links=1 #nodes=0
2014-07-19 14:58:46,185  INFO QSim:389 SIMULATION (NEW QSim) AT 00:23:09 : #Veh=5001 lost=0 simT=0.0s realT=0s; (s/r): 0.0
2014-07-19 14:58:46,185  INFO Gbl:48 used RAM: 1025162304B = 1001135kB = 977MB  free: 495272896B = 472MB  total: 1520435200B = 1450MB
2014-07-19 14:58:46,185  INFO EventsManagerImpl:153  event # 8
2014-07-19 14:58:46,185  INFO EventsManagerImpl:153  event # 16
2014-07-19 14:58:46,185  INFO EventsManagerImpl:153  event # 32
2014-07-19 14:58:46,185  INFO EventsManagerImpl:153  event # 64
2014-07-19 14:58:46,185  INFO QNetsimEngine:298 SIMULATION (QNetsimEngine) AT 01:00:00 : #links=0 #nodes=0
2014-07-19 14:58:46,185  INFO QSim:389 SIMULATION (NEW QSim) AT 01:00:00 : #Veh=5001 lost=0 simT=2211.0s realT=0s; (s/r): Infinity
2014-07-19 14:58:46,185  INFO Gbl:48 used RAM: 1025162304B = 1001135kB = 977MB  free: 495272896B = 472MB  total: 1520435200B = 1450MB
2014-07-19 14:58:46,185  INFO EventsManagerImpl:153  event # 128
2014-07-19 14:58:46,185  INFO EventsManagerImpl:153  event # 256
2014-07-19 14:58:46,185  INFO EventsManagerImpl:153  event # 512
2014-07-19 14:58:46,201  INFO QNetsimEngine:298 SIMULATION (QNetsimEngine) AT 02:00:00 : #links=1 #nodes=0
2014-07-19 14:58:46,201  INFO QSim:389 SIMULATION (NEW QSim) AT 02:00:00 : #Veh=5001 lost=0 simT=5811.0s realT=0s; (s/r): Infinity
2014-07-19 14:58:46,201  INFO Gbl:48 used RAM: 1028601800B = 1004493kB = 980MB  free: 491833400B = 469MB  total: 1520435200B = 1450MB
2014-07-19 14:58:46,201  INFO EventsManagerImpl:153  event # 1024
2014-07-19 14:58:46,216  INFO EventsManagerImpl:153  event # 2048
2014-07-19 14:58:46,232  INFO QNetsimEngine:298 SIMULATION (QNetsimEngine) AT 03:00:00 : #links=9 #nodes=0
2014-07-19 14:58:46,232  INFO QSim:389 SIMULATION (NEW QSim) AT 03:00:00 : #Veh=5001 lost=0 simT=9411.0s realT=0s; (s/r): Infinity
2014-07-19 14:58:46,232  INFO Gbl:48 used RAM: 1032041296B = 1007852kB = 984MB  free: 488393904B = 465MB  total: 1520435200B = 1450MB
2014-07-19 14:58:46,248  INFO EventsManagerImpl:153  event # 4096
2014-07-19 14:58:46,310  INFO EventsManagerImpl:153  event # 8192
2014-07-19 14:58:46,420  INFO EventsManagerImpl:153  event # 16384
2014-07-19 14:58:46,435  INFO QNetsimEngine:298 SIMULATION (QNetsimEngine) AT 04:00:00 : #links=80 #nodes=9
2014-07-19 14:58:46,435  INFO QSim:389 SIMULATION (NEW QSim) AT 04:00:00 : #Veh=5001 lost=0 simT=13011.0s realT=0s; (s/r): Infinity
2014-07-19 14:58:46,435  INFO Gbl:48 used RAM: 1052678272B = 1028006kB = 1003MB  free: 467756928B = 446MB  total: 1520435200B = 1450MB
2014-07-19 14:58:46,638  INFO EventsManagerImpl:153  event # 32768
2014-07-19 14:58:47,108  INFO EventsManagerImpl:153  event # 65536
2014-07-19 14:58:47,624  INFO QNetsimEngine:298 SIMULATION (QNetsimEngine) AT 05:00:00 : #links=338 #nodes=18
2014-07-19 14:58:47,624  INFO QSim:389 SIMULATION (NEW QSim) AT 05:00:00 : #Veh=5001 lost=0 simT=16611.0s realT=2s; (s/r): 8305.5
2014-07-19 14:58:47,624  INFO Gbl:48 used RAM: 1159302648B = 1132131kB = 1105MB  free: 361132552B = 344MB  total: 1520435200B = 1450MB
2014-07-19 14:58:48,108  INFO EventsManagerImpl:153  event # 131072
2014-07-19 14:58:50,000  INFO QNetsimEngine:298 SIMULATION (QNetsimEngine) AT 06:00:00 : #links=355 #nodes=22
2014-07-19 14:58:50,000  INFO QSim:389 SIMULATION (NEW QSim) AT 06:00:00 : #Veh=5001 lost=0 simT=20211.0s realT=4s; (s/r): 5052.75
2014-07-19 14:58:50,005  INFO Gbl:48 used RAM: 1358793416B = 1326946kB = 1295MB  free: 161641784B = 154MB  total: 1520435200B = 1450MB
2014-07-19 14:58:50,141  INFO EventsManagerImpl:153  event # 262144
2014-07-19 14:58:53,704  INFO QNetsimEngine:298 SIMULATION (QNetsimEngine) AT 07:00:00 : #links=309 #nodes=19
2014-07-19 14:58:53,704  INFO QSim:389 SIMULATION (NEW QSim) AT 07:00:00 : #Veh=5001 lost=0 simT=23811.0s realT=8s; (s/r): 2976.375
2014-07-19 14:58:53,712  INFO Gbl:48 used RAM: 619176040B = 604664kB = 590MB  free: 901259160B = 859MB  total: 1520435200B = 1450MB
2014-07-19 14:58:55,002  INFO QNetsimEngine:298 SIMULATION (QNetsimEngine) AT 08:00:00 : #links=93 #nodes=9
2014-07-19 14:58:55,002  INFO QSim:389 SIMULATION (NEW QSim) AT 08:00:00 : #Veh=5001 lost=0 simT=27411.0s realT=9s; (s/r): 3045.6666666666665
2014-07-19 14:58:55,016  INFO Gbl:48 used RAM: 739262720B = 721936kB = 705MB  free: 781172480B = 744MB  total: 1520435200B = 1450MB
2014-07-19 14:58:55,346  INFO QNetsimEngine:298 SIMULATION (QNetsimEngine) AT 09:00:00 : #links=43 #nodes=0
2014-07-19 14:58:55,346  INFO QSim:389 SIMULATION (NEW QSim) AT 09:00:00 : #Veh=5001 lost=0 simT=31011.0s realT=9s; (s/r): 3445.6666666666665
2014-07-19 14:58:55,346  INFO Gbl:48 used RAM: 770589680B = 752528kB = 734MB  free: 749845520B = 715MB  total: 1520435200B = 1450MB
2014-07-19 14:58:55,487  INFO QNetsimEngine:298 SIMULATION (QNetsimEngine) AT 10:00:00 : #links=9 #nodes=1
2014-07-19 14:58:55,487  INFO QSim:389 SIMULATION (NEW QSim) AT 10:00:00 : #Veh=4997 lost=0 simT=34611.0s realT=10s; (s/r): 3461.1
2014-07-19 14:58:55,487  INFO Gbl:48 used RAM: 786253160B = 767825kB = 749MB  free: 734182040B = 700MB  total: 1520435200B = 1450MB
2014-07-19 14:58:55,550  INFO QNetsimEngine:298 SIMULATION (QNetsimEngine) AT 11:00:00 : #links=17 #nodes=2
2014-07-19 14:58:55,550  INFO QSim:389 SIMULATION (NEW QSim) AT 11:00:00 : #Veh=4968 lost=0 simT=38211.0s realT=10s; (s/r): 3821.1
2014-07-19 14:58:55,550  INFO Gbl:48 used RAM: 796695480B = 778022kB = 759MB  free: 723739720B = 690MB  total: 1520435200B = 1450MB
2014-07-19 14:58:55,596  INFO EventsManagerImpl:153  event # 524288
2014-07-19 14:58:55,753  INFO QNetsimEngine:298 SIMULATION (QNetsimEngine) AT 12:00:00 : #links=66 #nodes=0
2014-07-19 14:58:55,753  INFO QSim:389 SIMULATION (NEW QSim) AT 12:00:00 : #Veh=4845 lost=0 simT=41811.0s realT=10s; (s/r): 4181.1
2014-07-19 14:58:55,753  INFO Gbl:48 used RAM: 812358960B = 793319kB = 774MB  free: 708076240B = 675MB  total: 1520435200B = 1450MB
2014-07-19 14:58:56,393  INFO QNetsimEngine:298 SIMULATION (QNetsimEngine) AT 13:00:00 : #links=153 #nodes=10
2014-07-19 14:58:56,393  INFO QSim:389 SIMULATION (NEW QSim) AT 13:00:00 : #Veh=4419 lost=0 simT=45411.0s realT=10s; (s/r): 4541.1
2014-07-19 14:58:56,398  INFO Gbl:48 used RAM: 875012880B = 854504kB = 834MB  free: 645422320B = 615MB  total: 1520435200B = 1450MB
2014-07-19 14:58:57,879  INFO QNetsimEngine:298 SIMULATION (QNetsimEngine) AT 14:00:00 : #links=273 #nodes=10
2014-07-19 14:58:57,879  INFO QSim:389 SIMULATION (NEW QSim) AT 14:00:00 : #Veh=3511 lost=0 simT=49011.0s realT=12s; (s/r): 4084.25
2014-07-19 14:58:57,886  INFO Gbl:48 used RAM: 593773864B = 579857kB = 566MB  free: 926661336B = 883MB  total: 1520435200B = 1450MB
2014-07-19 14:58:59,755  INFO QNetsimEngine:298 SIMULATION (QNetsimEngine) AT 15:00:00 : #links=288 #nodes=23
2014-07-19 14:58:59,755  INFO QSim:389 SIMULATION (NEW QSim) AT 15:00:00 : #Veh=2275 lost=0 simT=52611.0s realT=14s; (s/r): 3757.9285714285716
2014-07-19 14:58:59,761  INFO Gbl:48 used RAM: 754455064B = 736772kB = 719MB  free: 765980136B = 730MB  total: 1520435200B = 1450MB
2014-07-19 14:59:01,396  INFO QNetsimEngine:298 SIMULATION (QNetsimEngine) AT 16:00:00 : #links=242 #nodes=13
2014-07-19 14:59:01,396  INFO QSim:389 SIMULATION (NEW QSim) AT 16:00:00 : #Veh=1139 lost=0 simT=56211.0s realT=15s; (s/r): 3747.4
2014-07-19 14:59:01,403  INFO Gbl:48 used RAM: 902281768B = 881134kB = 860MB  free: 618153432B = 589MB  total: 1520435200B = 1450MB
2014-07-19 14:59:02,429  INFO QNetsimEngine:298 SIMULATION (QNetsimEngine) AT 17:00:00 : #links=109 #nodes=6
2014-07-19 14:59:02,444  INFO QSim:389 SIMULATION (NEW QSim) AT 17:00:00 : #Veh=395 lost=0 simT=59811.0s realT=16s; (s/r): 3738.1875
2014-07-19 14:59:02,445  INFO Gbl:48 used RAM: 572073072B = 558665kB = 545MB  free: 948362128B = 904MB  total: 1520435200B = 1450MB
2014-07-19 14:59:02,805  INFO QNetsimEngine:298 SIMULATION (QNetsimEngine) AT 18:00:00 : #links=34 #nodes=1
2014-07-19 14:59:02,805  INFO QSim:389 SIMULATION (NEW QSim) AT 18:00:00 : #Veh=98 lost=0 simT=63411.0s realT=17s; (s/r): 3730.0588235294117
2014-07-19 14:59:02,805  INFO Gbl:48 used RAM: 608258472B = 594002kB = 580MB  free: 912176728B = 869MB  total: 1520435200B = 1450MB
2014-07-19 14:59:02,898  INFO QNetsimEngine:298 SIMULATION (QNetsimEngine) AT 19:00:00 : #links=6 #nodes=0
2014-07-19 14:59:02,898  INFO QSim:389 SIMULATION (NEW QSim) AT 19:00:00 : #Veh=16 lost=0 simT=67011.0s realT=17s; (s/r): 3941.823529411765
2014-07-19 14:59:02,898  INFO Gbl:48 used RAM: 622732632B = 608137kB = 593MB  free: 897702568B = 856MB  total: 1520435200B = 1450MB
2014-07-19 14:59:02,930  INFO QNetsimEngine:298 SIMULATION (QNetsimEngine) AT 20:00:00 : #links=2 #nodes=0
2014-07-19 14:59:02,930  INFO QSim:389 SIMULATION (NEW QSim) AT 20:00:00 : #Veh=2 lost=0 simT=70611.0s realT=17s; (s/r): 4153.588235294118
2014-07-19 14:59:02,930  INFO Gbl:48 used RAM: 622732632B = 608137kB = 593MB  free: 897702568B = 856MB  total: 1520435200B = 1450MB
2014-07-19 14:59:03,086  INFO AbstractController:174 ### ITERATION 10 fires after mobsim event
2014-07-19 14:59:03,086  INFO ControlerListenerManager:268 calling notifyAfterMobsim on org.matsim.core.controler.corelisteners.EventsHandling
2014-07-19 14:59:03,086  INFO ControlerListenerManager:268 calling notifyAfterMobsim on org.matsim.core.controler.corelisteners.LegTimesListener
2014-07-19 14:59:03,101  INFO LegTimesListener:48 [10] average trip (probably: leg) duration is: 819 seconds = 00:13:39
2014-07-19 14:59:03,101  INFO ControlerListenerManager:276 [it.10] all ControlerAfterMobsimListeners called.
2014-07-19 14:59:03,101  INFO AbstractController:176 ### ITERATION 10 fires scoring event
2014-07-19 14:59:03,101  INFO ControlerListenerManager:204 calling notifyScoring on org.matsim.core.controler.corelisteners.PlansScoring
2014-07-19 14:59:03,117  INFO ControlerListenerManager:215 [it.10] all ControlerScoringListeners called.
2014-07-19 14:59:03,117  INFO AbstractController:178 ### ITERATION 10 fires iteration end event
2014-07-19 14:59:03,117  INFO ControlerListenerManager:180 calling notifyIterationEnds on org.matsim.core.controler.corelisteners.EventsHandling
2014-07-19 14:59:03,117  INFO EventsManagerImpl:177 removing Event-Handler: org.matsim.core.events.algorithms.EventWriterXML
2014-07-19 14:59:03,117  INFO ControlerListenerManager:180 calling notifyIterationEnds on org.matsim.core.controler.corelisteners.PlansScoring
2014-07-19 14:59:03,117  INFO EventsManagerImpl:177 removing Event-Handler: org.matsim.core.scoring.EventsToScore
2014-07-19 14:59:03,117  INFO ControlerListenerManager:187 calling notifyIterationEnds on org.matsim.core.controler.corelisteners.LinkStatsControlerListener
2014-07-19 14:59:19,819  INFO ControlerListenerManager:187 calling notifyIterationEnds on org.matsim.counts.CountControlerListener
2014-07-19 14:59:20,898  INFO MatsimResource:95 Resource 'countsKml/countsLegend240x300.png' not found locally. May not be fatal.
2014-07-19 14:59:20,916  INFO MatsimResource:95 Resource 'matsim_logo_transparent.png' not found locally. May not be fatal.
2014-07-19 14:59:20,916  INFO MatsimResource:95 Resource 'icons/plus.png' not found locally. May not be fatal.
2014-07-19 14:59:20,916  INFO MatsimResource:95 Resource 'icons/minus.png' not found locally. May not be fatal.
2014-07-19 14:59:20,947  INFO CountSimComparisonKMLWriter:636 writing chart data to D:\Uni\Matsim\MatsimHA2\output01\ITERS\it.10\biasErrorGraphData.txt
2014-07-19 14:59:23,322  INFO ControlerListenerManager:187 calling notifyIterationEnds on org.matsim.analysis.TravelDistanceStats
2014-07-19 14:59:23,333  INFO TravelDistanceStats:142 [TravelDistanceStats] using 2 thread(s).
2014-07-19 14:59:23,620  INFO TravelDistanceStats:155 [TravelDistanceStats] all threads finished.
2014-07-19 14:59:23,620  INFO TravelDistanceStats:184 -- average of the average leg distance per plan (executed plans only): 13981.341807151235
2014-07-19 14:59:23,620  INFO TravelDistanceStats:185 -- average of the average leg distance per plan (worst plans only): 13975.532238184924
2014-07-19 14:59:23,620  INFO TravelDistanceStats:186 -- average of the average leg distance per plan (all plans): 13978.13017877123
2014-07-19 14:59:23,620  INFO TravelDistanceStats:187 -- average of the average leg distance per plan (best plans only): 13983.628439762346
2014-07-19 14:59:23,776  INFO ControlerListenerManager:187 calling notifyIterationEnds on org.matsim.analysis.ScoreStats
2014-07-19 14:59:23,792  INFO ScoreStats:182 -- avg. score of the executed plan of each agent: 134.64772207968088
2014-07-19 14:59:23,792  INFO ScoreStats:188 -- avg. score of the worst plan of each agent: 132.39216988688352
2014-07-19 14:59:23,792  INFO ScoreStats:189 -- avg. of the avg. plan score per agent: 134.58400868816202
2014-07-19 14:59:23,792  INFO ScoreStats:190 -- avg. score of the best plan of each agent: 136.04437373424244
2014-07-19 14:59:23,948  INFO ControlerListenerManager:187 calling notifyIterationEnds on org.matsim.core.controler.corelisteners.LegHistogramListener
2014-07-19 14:59:23,948  INFO LegHistogramListener:77 number of legs:	10002	100%
2014-07-19 14:59:23,948  INFO LegHistogramListener:84 number of car legs:	10002	100.0%
2014-07-19 14:59:23,948  INFO LegHistogramListener:86 (car legs include legs by pt vehicles)
2014-07-19 14:59:24,589  INFO ControlerListenerManager:191 [it.10] all ControlerIterationEndsListeners called.
2014-07-19 14:59:24,590  INFO AbstractController:182 ### ITERATION 10 ENDS
2014-07-19 14:59:24,590  INFO AbstractController:183 ###################################################
2014-07-19 14:59:24,590  INFO ControlerListenerManager:139 calling notifyShutdown on org.matsim.core.controler.corelisteners.EventsHandling
2014-07-19 14:59:24,590  INFO ControlerListenerManager:139 calling notifyShutdown on org.matsim.core.controler.corelisteners.DumpDataAtEnd
2014-07-19 14:59:24,590  INFO Counter:51 [PopulationWriter] dumped person # 1
2014-07-19 14:59:24,590  INFO Counter:51 [PopulationWriter] dumped person # 2
2014-07-19 14:59:24,590  INFO Counter:51 [PopulationWriter] dumped person # 4
2014-07-19 14:59:24,590  INFO Counter:51 [PopulationWriter] dumped person # 8
2014-07-19 14:59:24,605  INFO Counter:51 [PopulationWriter] dumped person # 16
2014-07-19 14:59:24,605  INFO Counter:51 [PopulationWriter] dumped person # 32
2014-07-19 14:59:24,621  INFO Counter:51 [PopulationWriter] dumped person # 64
2014-07-19 14:59:24,652  INFO Counter:51 [PopulationWriter] dumped person # 128
2014-07-19 14:59:24,715  INFO Counter:51 [PopulationWriter] dumped person # 256
2014-07-19 14:59:24,824  INFO Counter:51 [PopulationWriter] dumped person # 512
2014-07-19 14:59:25,027  INFO Counter:51 [PopulationWriter] dumped person # 1024
2014-07-19 14:59:25,418  INFO Counter:51 [PopulationWriter] dumped person # 2048
2014-07-19 14:59:26,184  INFO Counter:51 [PopulationWriter] dumped person # 4096
2014-07-19 14:59:26,529  INFO Counter:57 [PopulationWriter] dumped person # 5001
2014-07-19 14:59:26,529  INFO PopulationWriter:173 Population written to: output01/output_plans.xml.gz
2014-07-19 14:59:26,529  INFO NetworkWriter:47 Writing network to file: output01/output_network.xml.gz...
2014-07-19 14:59:28,467  INFO NetworkWriter:50 done.
2014-07-19 14:59:28,472  INFO Counter:57 [FacilitiesWriter] dumped facility # 0
2014-07-19 14:59:28,472  INFO ControlerListenerManager:144 calling notifyShutdown on org.matsim.analysis.TravelDistanceStats
2014-07-19 14:59:28,472  INFO ControlerListenerManager:144 calling notifyShutdown on org.matsim.analysis.ScoreStats
2014-07-19 14:59:28,472  INFO ControlerListenerManager:148 all ControlerShutdownListeners called.
