2014-08-15 13:57:08,825  INFO Gbl:53 JVM: 1.7.0_65; Oracle Corporation; mixed mode; 64-bit
2014-08-15 13:57:08,825  INFO Gbl:57 OS: Windows 8.1; 6.3; amd64
2014-08-15 13:57:08,825  INFO Gbl:60 CPU cores: 2
2014-08-15 13:57:08,825  INFO Gbl:61 max. Memory: 1778.0MB (1864368128B)
2014-08-15 13:57:08,825  INFO Gbl:89 MATSim-Build: r${buildNumber} (${timestamp})
2014-08-15 13:57:08,825  INFO AbstractController:71 Used Controler-Class: org.matsim.core.controler.Controler
2014-08-15 13:57:08,841  INFO AbstractController:203 Complete config dump directly after reading/getting the config file.  See later for config dump after setup.
2014-08-15 13:57:08,872  INFO AbstractController:207 

<?xml version="1.0" encoding="UTF-8"?>
<!DOCTYPE config SYSTEM "http://www.matsim.org/files/dtd/config_v1.dtd">
<config>

<!-- ====================================================================== -->

	<module name="TimeAllocationMutator" >

		<!-- Defines how many seconds a time mutation can maximally shift a time. -->
		<param name="mutationRange" value="7200.0" />
	</module>

<!-- ====================================================================== -->

	<module name="controler" >
		<param name="enableLinkToLinkRouting" value="false" />

		<!-- Specifies the file format for writing events. Currently supported: txt, xml. Multiple values can be specified separated by commas (','). -->
		<param name="eventsFileFormat" value="xml" />

		<param name="firstIteration" value="0" />
		<param name="lastIteration" value="100" />

		<!-- Defines which mobility simulation will be used. Currently supported: queueSimulation qsim JDEQSim multimodalQSim 
Depending on the chosen mobsim, you'll have to add additional config modules to configure the corresponding mobsim.
For 'qsim', add a module 'qsim' to the config.
For 'queueSimulation', add a module 'simulation' to the config. -->
		<param name="mobsim" value="qsim" />

		<param name="outputDirectory" value="output02/" />

		<!-- The type of routing (least cost path) algorithm used, may have the values: Dijkstra, FastDijkstra, AStarLandmarks or FastAStarLandmarks -->
		<param name="routingAlgorithmType" value="Dijkstra" />

		<!-- An identifier for the current run which is used as prefix for output files and mentioned in output xml files etc. -->
		<param name="runId" value="null" />

		<!-- Comma-separated list of visualizer output file formats. `transims', `googleearth', and `otfvis'. -->
		<param name="snapshotFormat" value="" />

		<!-- iterationNumber % writeEventsInterval == 0 defines in which iterations events are written to a file. `0' disables events writing completely. -->
		<param name="writeEventsInterval" value="10" />

		<!-- iterationNumber % writePlansInterval == 0 defines (hopefully) in which iterations plans are written to a file. `0' disables plans writing completely.  Some plans in early iterations are always written -->
		<param name="writePlansInterval" value="10" />

		<!-- iterationNumber % writeSnapshotsInterval == 0 defines in which iterations snapshots are written to a file. `0' disables snapshots writing completely -->
		<param name="writeSnapshotsInterval" value="1" />
	</module>

<!-- ====================================================================== -->

	<module name="counts" >

		<!-- Specifies over how many iterations the link volumes should be averaged that are used for the counts comparison. Use 1 or 0 to only use the link volumes of a single iteration. This values cannot be larger than the value specified for writeCountsInterval -->
		<param name="averageCountsOverIterations" value="5" />

		<!-- factor by which to re-scale the simulated values.  necessary when simulation runs with something different from 100%.  needs to be adapted manually -->
		<param name="countsScaleFactor" value="100.0" />

		<!-- distance to distanceFilterCenterNode to include counting stations. The unit of distance is the Euclidean distance implied by the coordinate system -->
		<param name="distanceFilter" value="null" />

		<!-- node id for center node of distance filter -->
		<param name="distanceFilterCenterNode" value="null" />

		<!-- input file name to counts package -->
		<param name="inputCountsFile" value="input02/counts.xml" />

		<!-- possible values: `html', `kml', `txt', `all' -->
		<param name="outputformat" value="kml" />

		<!-- Specifies how often the counts comparison should be calculated and written. -->
		<param name="writeCountsInterval" value="10" />
	</module>

<!-- ====================================================================== -->

	<module name="facilities" >
		<param name="inputFacilitiesFile" value="null" />
	</module>

<!-- ====================================================================== -->

	<module name="global" >
		<param name="coordinateSystem" value="EPSG:3006" />
		<param name="numberOfThreads" value="2" />
		<param name="randomSeed" value="4711" />
	</module>

<!-- ====================================================================== -->

	<module name="households" >
		<param name="inputFile" value="null" />
	</module>

<!-- ====================================================================== -->

	<module name="linkStats" >

		<!-- Specifies over how many iterations the link volumes should be averaged that are used for the link statistics. Use 1 or 0 to only use the link volumes of a single iteration. This values cannot be larger than the value specified for writeLinkStatsInterval -->
		<param name="averageLinkStatsOverIterations" value="5" />

		<!-- Specifies how often the link stats should be calculated and written. Use 0 to disable the generation of link stats. -->
		<param name="writeLinkStatsInterval" value="10" />
	</module>

<!-- ====================================================================== -->

	<module name="locationchoice" >
		<param name="algorithm" value="random" />
		<param name="analysisBinSize" value="20000.0" />
		<param name="analysisBoundary" value="200000.0" />
		<param name="centerNode" value="null" />
		<param name="destinationSamplePercent" value="100.0" />
		<param name="epsilonDistribution" value="gumbel" />
		<param name="epsilonScaleFactors" value="null" />
		<param name="fAttributesFileName" value="null" />
		<param name="fkValuesFile" value="null" />
		<param name="flexible_types" value="null" />
		<param name="idExclusion" value="2147483647" />
		<param name="maxDCScoreFile" value="null" />
		<param name="maxDistanceDCScore" value="-1.0" />
		<param name="maxRecursions" value="1" />
		<param name="pBetasFileName" value="null" />
		<param name="pkValuesFile" value="null" />
		<param name="planSelector" value="SelectExpBeta" />
		<param name="probChoiceSetSize" value="10" />
		<param name="radius" value="null" />
		<param name="randomSeed" value="221177" />
		<param name="recursionTravelSpeed" value="8.5" />
		<param name="recursionTravelSpeedChange" value="0.1" />
		<param name="restraintFcnExp" value="0.0" />
		<param name="restraintFcnFactor" value="0.0" />
		<param name="scaleFactor" value="1" />
		<param name="tt_approximationLevel" value="0" />
	</module>

<!-- ====================================================================== -->

	<module name="multimodal" >

		<!-- Use this, if your network is not multi modal. Links with free speeds that are lower than the specified cutoff value will be usable for walk and bike trips. -->
		<param name="createMultiModalNetwork" value="false" />

		<!-- Only used, if createMultiModalNetwork is enabled (set value in m/s). -->
		<param name="cuttoffValueForNonCarModes" value="22.22222222222222" />

		<param name="dropNonCarRoutes" value="false" />
		<param name="multiModalSimulationEnabled" value="false" />

		<!-- Use number of threads > 1 for parallel version using the specified number of threads. -->
		<param name="numberOfThreads" value="1" />

		<param name="simulatedModes" value="pt,walk,ride,bike" />
	</module>

<!-- ====================================================================== -->

	<module name="network" >
		<param name="inputChangeEventsFile" value="null" />
		<param name="inputNetworkFile" value="input02/network_cleaned_simplified.xml" />
		<param name="laneDefinitionsFile" value="null" />
		<param name="timeVariantNetwork" value="false" />
	</module>

<!-- ====================================================================== -->

	<module name="otfvis" >

		<!-- The (initial) size of the agents.  Only a range of numbers is allowed, otherwise otfvis aborts rather ungracefully, or displays no agents at all. -->
		<param name="agentSize" value="120.0" />

		<!-- coloring scheme for otfvis.  Currently (2012) allowed values: standard bvg bvg2 byId gtfs -->
		<param name="coloringScheme" value="standard" />

		<!-- If non-moving items (e.g. agents at activities, at bus stops, etc.) should be showed.  May affect all non-moving items. -->
		<param name="drawNonMovingItems" value="false" />

		<param name="drawTransitFacilities" value="true" />
		<param name="drawTransitFacilityIds" value="true" />
		<param name="leftMouseFunc" value="Zoom" />

		<!-- The (initial) width of the links of the network. Use positive floating point values. -->
		<param name="linkWidth" value="30.0" />

		<!-- Link width is proportional to `numberOfLanes' or to `capacity'. -->
		<param name="linkwidthIsProportionalTo" value="numberOfLanes" />

		<!-- URL to get WMS tiles from. For a local GeoServer instance, use http://localhost:8080/geoserver/wms?service=WMS& -->
		<param name="mapBaseURL" value="" />

		<!-- The WMS layer to display. For GeoServer and a layer called clipped in workspace mz, use mz:clipped -->
		<param name="mapLayer" value="" />

		<!-- Render everything on top of map tiles. Default: From tiles.openstreetmap.org -->
		<param name="mapOverlayMode" value="false" />

		<param name="middleMouseFunc" value="Pan" />

		<!-- Shortens a link's start and end point in the visualization. -->
		<param name="nodeOffset" value="0.0" />

		<param name="rightMouseFunc" value="Select" />
		<param name="showTeleportation" value="false" />
	</module>

<!-- ====================================================================== -->

	<module name="parallelEventHandling" >

		<!-- estimated number of events during mobsim run, useful for configuration -->
		<param name="estimatedNumberOfEvents" value="null" />

		<!-- number of threads for parallel events handler.  0 or null means parallel events handler is disabled -->
		<param name="numberOfThreads" value="null" />
	</module>

<!-- ====================================================================== -->

	<module name="planCalcScore" >

		<!-- new_score = (1-learningRate)*old_score + learningRate * score_from_mobsim.  learning rates close to zero emulate score averaging, but slow down initial convergence -->
		<param name="learningRate" value="1.0" />

		<!-- logit model scale parameter. default: 2.  Has name and default value for historical reasons (see Bryan Raney's phd thesis).  Should be in strategyConfigGroup. -->
		<param name="BrainExpBeta" value="2.0" />

		<param name="PathSizeLogitBeta" value="1.0" />

		<!-- [utils/hr] utility for arriving late (i.e. after the latest start time).  normally negative -->
		<param name="lateArrival" value="-18.0" />

		<!-- [utils/hr] utility for departing early (i.e. before the earliest end time).  Probably implemented correctly, but not tested. -->
		<param name="earlyDeparture" value="-0.0" />

		<!-- [utils/hr] marginal utility of doing an activity.  normally positive.  also the opportunity cost of time if agent is doing nothing. -->
		<param name="performing" value="6.0" />

		<!-- [utils/hr] additional marginal utility of traveling by car.  normally negative.  this comes on top of the opportunity cost of time -->
		<param name="traveling" value="-6.0" />

		<!-- [utils/hr] additional marginal utility offset of traveling by pt.  normally negative.  this comes on top of the opportunity cost of time -->
		<param name="travelingPt" value="-6.0" />

		<!-- [utils/hr] additional marginal utility offset of traveling by foot.  normally negative.  this comes on top of the opportunity cost of time.  also see marginalUtlOfDistanceWalk -->
		<param name="travelingWalk" value="-6.0" />

		<param name="travelingOther" value="-6.0" />
		<param name="travelingBike" value="-6.0" />

		<!-- [utils/hr] utility offset for waiting.  this comes on top of the opportunity cost of time.  Probably implemented correctly, but not tested. -->
		<param name="waiting" value="-0.0" />

		<!-- [utils/hr] utility offset for waiting for a pt vehicle.  this comes on top of the opportunity cost of time. Default: if not set explicitly, it is equal to traveling_pt!!! -->
		<param name="waitingPt" value="-6.0" />

		<!-- [utils/m] utility of walking per m, normally negative.  this is on top of the time (dis)utility. -->
		<param name="marginalUtlOfDistanceWalk" value="0.0" />

		<param name="marginalUtlOfDistanceOther" value="0.0" />

		<!-- [utils/unit_of_money] conversion of money (e.g. toll, distance cost) into utils -->
		<param name="marginalUtilityOfMoney" value="1.0" />

		<!-- [unit_of_money/m] conversion of car distance into money. Probably needs to be negative to work. -->
		<param name="monetaryDistanceCostRateCar" value="0.0" />

		<!-- [unit_of_money/m] conversion of pt distance into money. Probably needs to be negative to work. -->
		<param name="monetaryDistanceCostRatePt" value="0.0" />

		<!-- [utils] utility of switching a line (= transfer penalty).  Normally negative -->
		<param name="utilityOfLineSwitch" value="-1.0" />

		<!-- [utils] alternative-specific constant for car.  no guarantee that this is used anywhere. default=0 to be backwards compatible for the time being -->
		<param name="constantCar" value="0.0" />

		<!-- [utils] alternative-specific constant for walk.  no guarantee that this is used anywhere. default=0 to be backwards compatible for the time being -->
		<param name="constantWalk" value="0.0" />

		<param name="constantOther" value="0.0" />

		<!-- [utils] alternative-specific constant for bike.  no guarantee that this is used anywhere. default=0 to be backwards compatible for the time being -->
		<param name="constantBike" value="0.0" />

		<!-- [utils] alternative-specific constant for pt.  no guarantee that this is used anywhere. default=0 to be backwards compatible for the time being -->
		<param name="constantPt" value="0.0" />

		<!-- write a plans file in each iteration directory which contains what each agent actually did, and the score it received. -->
		<param name="writeExperiencedPlans" value="false" />

		<!--  ============================  -->
		<param name="activityType_0" value="home" />

		<param name="activityPriority_0" value="1.0" />
		<param name="activityTypicalDuration_0" value="12:00:00" />
		<param name="activityMinimalDuration_0" value="undefined" />
		<param name="activityOpeningTime_0" value="undefined" />
		<param name="activityLatestStartTime_0" value="undefined" />
		<param name="activityEarliestEndTime_0" value="undefined" />
		<param name="activityClosingTime_0" value="undefined" />

		<!--  ============================  -->
		<param name="activityType_1" value="work" />

		<param name="activityPriority_1" value="1.0" />
		<param name="activityTypicalDuration_1" value="08:00:00" />
		<param name="activityMinimalDuration_1" value="undefined" />
		<param name="activityOpeningTime_1" value="05:00:00" />
		<param name="activityLatestStartTime_1" value="10:30:00" />
		<param name="activityEarliestEndTime_1" value="undefined" />
		<param name="activityClosingTime_1" value="20:00:00" />
	</module>

<!-- ====================================================================== -->

	<module name="plans" >

		<!-- Path to a file containing person attributes (required file format: ObjectAttributes). -->
		<param name="inputPersonAttributesFile" value="null" />

		<param name="inputPlansFile" value="input02/plans.xml" />

		<!-- Defines how routes are stored in memory. Currently supported: LinkNetworkRoute, CompressedNetworkRoute. -->
		<param name="networkRouteType" value="LinkNetworkRoute" />
	</module>

<!-- ====================================================================== -->

	<module name="planscalcroute" >

		<!-- factor with which beeline distances (and therefore times) are multiplied in order to obtain an estimate of the network distances/times.  Default is something like 1.3 -->
		<param name="beelineDistanceFactor" value="1.3" />

		<!-- All the modes for which the router is supposed to generate network routes (like car) -->
		<param name="networkModes" value="car,ride" />

		<!-- Free-speed factor for a teleported mode based on freespeed: freespeedFactor * <freespeed car travel time>. Insert a line like this for every such mode. freespeedFactor wins over teleportedModeSpeed, if both are set (says michaz). -->
		<param name="teleportedModeFreespeedFactor_pt" value="2.0" />
	</module>

<!-- ====================================================================== -->

	<module name="ptCounts" >

		<!-- factor by which to re-scale the simulated values.  necessary when simulation runs with something different from 100%.  needs to be adapted manually -->
		<param name="countsScaleFactor" value="1.0" />

		<!-- distance to distanceFilterCenterNode to include counting stations. The unit of distance is the Euclidean distance implied by the coordinate system -->
		<param name="distanceFilter" value="null" />

		<!-- node id for center node of distance filter -->
		<param name="distanceFilterCenterNode" value="null" />

		<!-- input file containing the alighting (getting off) counts for pt -->
		<param name="inputAlightCountsFile" value="null" />

		<!-- input file containing the boarding (getting on) counts for pt -->
		<param name="inputBoardCountsFile" value="null" />

		<!-- input file containing the occupancy counts for pt -->
		<param name="inputOccupancyCountsFile" value="null" />

		<!-- possible values: `html', `kml', `txt', `all' -->
		<param name="outputformat" value="null" />

		<!-- every how many iterations (starting with 0) counts comparisons are generated -->
		<param name="ptCountsInterval" value="10" />
	</module>

<!-- ====================================================================== -->

	<module name="qsim" >
		<param name="endTime" value="24:00:00" />
		<param name="flowCapacityFactor" value="0.07" />

		<!-- decides if waiting vehicles enter the network after or before the already driving vehicles were moved. Default: false -->
		<param name="insertingWaitingVehiclesBeforeDrivingVehicles" value="false" />

		<!-- Defines which mode should be the qsim `main' (=congested) mode. Technically, this is the mode that the departure handler of the netsimengine handles.  Effective cell size, effective lane width, flow capacity factor, and storage capacity factor need to be set with diligence.  Needs to be a vehicular mode to make sense. -->
		<param name="mainMode" value="car" />

		<!-- Use number of threads > 1 for parallel version using the specified number of threads -->
		<param name="numberOfThreads" value="1" />

		<!-- Boolean. `true': stuck vehicles are removed, aborting the plan; `false': stuck vehicles are forced into the next link. `false' is probably the better choice. -->
		<param name="removeStuckVehicles" value="false" />

		<!-- `maxOfStarttimeAndEarliestActivityEnd' (default behavior) or `onlyUseStarttime' -->
		<param name="simStarttimeInterpretation" value="maxOfStarttimeAndEarliestActivityEnd" />

		<!-- snapshotStyle: `equiDist' (vehicles equidistant on link) or `queue' (vehicles queued at end of link) or `withHolesExperimental' (experimental!!) -->
		<param name="snapshotStyle" value="equiDist" />

		<param name="snapshotperiod" value="00:00:00" />
		<param name="startTime" value="00:00:00" />
		<param name="storageCapacityFactor" value="0.02" />

		<!-- time in seconds.  Time after which the frontmost vehicle on a link is called `stuck' if it does not move. -->
		<param name="stuckTime" value="10.0" />

		<param name="timeStepSize" value="00:00:01" />

		<!-- `queue' for the standard queue model, `withHolesExperimental' (experimental!!) for the queue model with holes -->
		<param name="trafficDynamics" value="queue" />

		<!-- Defines what happens if an agent wants to depart, but the specified vehicle is not available. One of: teleport, wait, exception -->
		<param name="vehicleBehavior" value="teleport" />
	</module>

<!-- ====================================================================== -->

	<module name="roadpricing" >
	</module>

<!-- ====================================================================== -->

	<module name="scenario" >

		<!-- Set this parameter to true if households should be used, false if not. -->
		<param name="useHouseholds" value="false" />

		<!-- Set this parameter to true if knowledge should be used, false if not. -->
		<param name="useKnowledge" value="true" />

		<!-- Set this parameter to true if lanes should be used, false if not. -->
		<param name="useLanes" value="false" />

		<!-- Set this parameter to true if roadpricing should be used, false if not. -->
		<param name="useRoadpricing" value="false" />

		<!-- Set this parameter to true if signal systems should be used, false if not. -->
		<param name="useSignalsystems" value="false" />

		<!-- Set this parameter to true if transit should be simulated, false if not. -->
		<param name="useTransit" value="false" />

		<!-- Set this parameter to true if vehicles should be used, false if not. -->
		<param name="useVehicles" value="false" />
	</module>

<!-- ====================================================================== -->

	<module name="signalsystems" >
		<param name="ambertimes" value="null" />
		<param name="intergreentimes" value="null" />
		<param name="signalcontrol" value="null" />
		<param name="signalgroups" value="null" />
		<param name="signalsystems" value="null" />
		<param name="useAmbertimes" value="false" />
		<param name="useIntergreentimes" value="false" />
	</module>

<!-- ====================================================================== -->

	<module name="strategy" >
		<param name="ExternalExeConfigTemplate" value="null" />
		<param name="ExternalExeTimeOut" value="3600" />
		<param name="ExternalExeTmpFileRootDir" value="null" />

		<!-- iteration after which module will be disabled.  most useful for ``innovative'' strategies (new routes, new times, ...) -->
		<param name="ModuleDisableAfterIteration_1" value="null" />

		<!-- iteration after which module will be disabled.  most useful for ``innovative'' strategies (new routes, new times, ...) -->
		<param name="ModuleDisableAfterIteration_2" value="80" />

		<!-- iteration after which module will be disabled.  most useful for ``innovative'' strategies (new routes, new times, ...) -->
		<param name="ModuleDisableAfterIteration_3" value="80" />

		<!-- path to external executable (if applicable) -->
		<param name="ModuleExePath_1" value="null" />

		<!-- path to external executable (if applicable) -->
		<param name="ModuleExePath_2" value="null" />

		<!-- path to external executable (if applicable) -->
		<param name="ModuleExePath_3" value="null" />

		<!-- probability that a strategy is applied to a given a person.  despite its name, this really is a ``weight'' -->
		<param name="ModuleProbability_1" value="0.8" />

		<!-- probability that a strategy is applied to a given a person.  despite its name, this really is a ``weight'' -->
		<param name="ModuleProbability_2" value="0.2" />

		<!-- probability that a strategy is applied to a given a person.  despite its name, this really is a ``weight'' -->
		<param name="ModuleProbability_3" value="0.2" />

		<!-- name of strategy (if not full class name, resolved in StrategyManagerConfigLoader) -->
		<param name="Module_1" value="ChangeExpBeta" />

		<!-- name of strategy (if not full class name, resolved in StrategyManagerConfigLoader) -->
		<param name="Module_2" value="ReRoute" />

		<!-- name of strategy (if not full class name, resolved in StrategyManagerConfigLoader) -->
		<param name="Module_3" value="TimeAllocationMutator" />

		<!-- maximum number of plans per agent.  ``0'' means ``infinity''.  Currently (2010), ``5'' is a good number -->
		<param name="maxAgentPlanMemorySize" value="5" />

		<!-- name of PlanSelector for plans removal.  If not full class name, resolved in StrategyManagerConfigLoader.  default is `null', which eventually calls SelectWorstPlan. This is not a good choice from a discrete choice theoretical perspective. Alternatives, however, have not been systematically tested. kai, feb'12 -->
		<param name="planSelectorForRemoval" value="null" />
	</module>

<!-- ====================================================================== -->

	<module name="subtourModeChoice" >

		<!-- Defines the chain-based modes, seperated by commas -->
		<param name="chainBasedModes" value="car,bike" />

		<!-- Defines whether car availability must be considered or not. A agent has no car only if it has no license, or never access to a car -->
		<param name="considerCarAvailability" value="false" />

		<!-- Defines all the modes available, including chain-based modes, seperated by commas -->
		<param name="modes" value="car,pt,bike,walk" />
	</module>

<!-- ====================================================================== -->

	<module name="transit" >

		<!-- Comma-separated list of transportation modes that are handled as transit. Defaults to 'pt'. -->
		<param name="transitModes" value="pt" />

		<!-- Input file containing the transit schedule to be simulated. -->
		<param name="transitScheduleFile" value="null" />

		<!-- Input file containing the vehicles used by the departures in the transit schedule. -->
		<param name="vehiclesFile" value="null" />
	</module>

<!-- ====================================================================== -->

	<module name="transitRouter" >

		<!-- additional time the router allocates when a line switch happens. Can be interpreted as a 'safety' time that agents need to safely transfer from one line to another -->
		<param name="additionalTransferTime" value="0.0" />

		<!-- step size to increase searchRadius if no stops are found -->
		<param name="extensionRadius" value="200.0" />

		<!-- maximum beeline distance between stops that agents could transfer to by walking -->
		<param name="maxBeelineWalkConnectionDistance" value="100.0" />

		<!-- the radius in which stop locations are searched, given a start or target coordinate -->
		<param name="searchRadius" value="1000.0" />
	</module>

<!-- ====================================================================== -->

	<module name="travelTimeCalculator" >

		<!-- Transport modes that will be respected by the travel time collector. 'car' is default, which includes also bussed from the pt simulation module. Use this parameter in combination with 'filterModes' = true! -->
		<param name="analyzedModes" value="car" />

		<param name="calculateLinkToLinkTravelTimes" value="false" />
		<param name="calculateLinkTravelTimes" value="true" />

		<!-- If true, link travel times from legs performed on modes not included in the 'analyzedModes' parameter are ignored. -->
		<param name="filterModes" value="false" />

		<!-- How to deal with congested time bins that have no link entry events. `optimistic' assumes free speed (too optimistic); 'experimental_LastMile' is experimental and probably too pessimistic. -->
		<param name="travelTimeAggregator" value="optimistic" />

		<!-- The size of the time bin (in sec) into which the link travel times are aggregated for the router -->
		<param name="travelTimeBinSize" value="900" />

		<param name="travelTimeCalculator" value="TravelTimeCalculatorArray" />

		<!-- How to deal with link entry times at different positions during the time bin. Currently supported: average, linearinterpolation -->
		<param name="travelTimeGetter" value="average" />
	</module>

<!-- ====================================================================== -->

	<module name="vspExperimental" >

		<!-- String: minOfDurationAndEndTime tryEndTimeThenDuration endTimeOnly. Anything besides minOfDurationAndEndTime will internally use a different (simpler) version of the TimeAllocationMutator. -->
		<param name="activityDurationInterpretation" value="minOfDurationAndEndTime" />

		<!-- REQUIRED: file with HBEFA 3.1 fleet average cold emission factors -->
		<param name="averageFleetColdEmissionFactorsFile" value="null" />

		<!-- REQUIRED: file with HBEFA 3.1 fleet average warm emission factors -->
		<param name="averageFleetWarmEmissionFactorsFile" value="null" />

		<!-- (do not use) set chainBasedModes for subTourModeChoice by Yu. E.g. "car,bike", "car" -->
		<param name="chainBasedModes" value="car" />

		<!-- OPTIONAL: file with HBEFA 3.1 detailed cold emission factors -->
		<param name="detailedColdEmissionFactorsFile" value="null" />

		<!-- OPTIONAL: file with HBEFA 3.1 detailed warm emission factors -->
		<param name="detailedWarmEmissionFactorsFile" value="null" />

		<!-- REQUIRED: mapping from input road types to HBEFA 3.1 road type strings -->
		<param name="emissionRoadTypeMappingFile" value="null" />

		<!-- definition of a vehicle for every person (who is allowed to choose a vehicle in the simulation):
 - REQUIRED: vehicle type Id must start with the respective HbefaVehicleCategory followed by `;'
 - OPTIONAL: if detailed emission calculation is switched on, vehicle type Id should aditionally contain HbefaVehicleAttributes (`Technology;SizeClasse;EmConcept'), corresponding to the strings in detailedWarmEmissionFactorsFile -->
		<param name="emissionVehicleFile" value="null" />

		<!-- (do not use) Set this filename of MZ05 daily analysis -->
		<param name="inputMZ05File" value="" />

		<!-- (do not use except of you have to) There was a problem with pt interaction scoring.  Some people solved it by overwriting the parameters of the pt interaction activity type.  Doing this now throws an Exception.  If you still insist on doing this, set the following to true. -->
		<param name="isAbleToOverwritePtInteractionParams" value="false" />

		<param name="isGeneratingBoardingDeniedEvent" value="false" />

		<!-- if an approximation of the opportunity cost of time is included into the radius calculation for location choice.`true' will be faster, but it is an approximation.  Default is `true'; `false' is available for backwards compatibility. -->
		<param name="isUsingOpportunityCostOfTimeForLocationChoice" value="true" />

		<param name="logitScaleParamForPlansRemoval" value="1." />

		<!-- changes MATSim's global time format used in output files. Can be used to enforce writing fractional seconds e.g. in output_plans.  default is `hh:mm:ss' (because of backwards compatibility). see Time.java for possible formats -->
		<param name="matsimGlobalTimeformat" value="HH:mm:ss" />

		<!-- (do not use) set the traffic mode option for subTourModeChoice by Yu -->
		<param name="modes" value="car, pt" />

		<!-- (not tested) will remove plan attributes that are presumably not used, such as activityStartTime. default=false -->
		<param name="removingUnnecessaryPlanAttributes" value="false" />

		<!-- first iteration of MSA score averaging. The matsim theory department suggests to use this together with switching of choice set innovation, but it has not been tested yet. -->
		<param name="scoreMSAStartsAtIteration" value="null" />

		<!-- if true then detailed emission factor files must be provided! -->
		<param name="usingDetailedEmissionCalculation" value="false" />

		<!-- indicates if, for routing, the opportunity cost of time should be added to the mode-specific marginal utilities of time.
		Default is true; false is possible only for backwards compatibility.
		This is only a suggestion since there is (by matsim design) no way to enforce that mental modules obey this. -->
		<param name="usingOpportunityCostOfTimeForPtRouting" value="true" />

		<!-- Options: `ignore', `warn', `abort'.  Default: either `ignore' or `warn'.
		When violating VSP defaults, this results in nothing, warnings, or aborts.  Members of VSP should use `abort' or talk to kai. -->
		<param name="vspDefaultsCheckingLevel" value="ignore" />

		<!-- if true then writes output_events in output directory.  default is `false'. Will only work when lastIteration is multiple of events writing interval -->
		<param name="writingOutputEvents" value="false" />
	</module>

<!-- ====================================================================== -->

</config>

2014-08-15 13:57:08,966  INFO AbstractController:208 Complete config dump done.
2014-08-15 13:57:08,966  INFO AbstractController:209 Checking consistency of config...
2014-08-15 13:57:08,966  INFO AbstractController:211 Checking consistency of config done.
2014-08-15 13:57:09,091  INFO SnapshotWriterRegistrar:41 OTFVis snapshots will not be supported, as OTFVis is not part of the classpath.
2014-08-15 13:57:09,123  WARN OutputDirectoryHierarchy:164 ###########################################################
2014-08-15 13:57:09,123  WARN OutputDirectoryHierarchy:165 ### THE CONTROLER WILL OVERWRITE FILES IN:
2014-08-15 13:57:09,123  WARN OutputDirectoryHierarchy:166 ### output02
2014-08-15 13:57:09,123  WARN OutputDirectoryHierarchy:167 ###########################################################
2014-08-15 13:57:09,139  INFO ScenarioLoaderImpl:135 loading scenario from base directory: D:\Uni\Matsim\MatsimHA2\
2014-08-15 13:57:09,139  INFO ScenarioLoaderImpl:169 loading network from input02/network_cleaned_simplified.xml
2014-08-15 13:57:09,186  INFO MatsimNetworkReader:83 using network_v1-reader.
2014-08-15 13:57:09,186  INFO MatsimXmlParser:215 Trying to load http://www.matsim.org/files/dtd/network_v1.dtd. In some cases (e.g. network interface up but no connection), this may take a bit.
2014-08-15 13:57:12,420  INFO ScenarioLoaderImpl:207 no facilities file set in config, therefore not loading any facilities.  This is not a problem except if you are using facilities
2014-08-15 13:57:12,424  INFO ScenarioLoaderImpl:220 loading population from input02/plans.xml
2014-08-15 13:57:12,437  INFO MatsimPopulationReader:86 using population_v5-reader.
2014-08-15 13:57:12,437  INFO MatsimXmlParser:215 Trying to load http://www.matsim.org/files/dtd/population_v5.dtd. In some cases (e.g. network interface up but no connection), this may take a bit.
2014-08-15 13:57:12,499  INFO PopulationImpl:181  person # 1
2014-08-15 13:57:12,499  INFO PopulationImpl:181  person # 2
2014-08-15 13:57:12,499  INFO PopulationImpl:181  person # 4
2014-08-15 13:57:12,499  INFO PopulationImpl:181  person # 8
2014-08-15 13:57:12,499  INFO PopulationImpl:181  person # 16
2014-08-15 13:57:12,531  INFO PopulationImpl:181  person # 32
2014-08-15 13:57:12,531  INFO PopulationImpl:181  person # 64
2014-08-15 13:57:12,718  INFO PopulationImpl:181  person # 128
2014-08-15 13:57:12,765  INFO PopulationImpl:181  person # 256
2014-08-15 13:57:12,843  INFO PopulationImpl:181  person # 512
2014-08-15 13:57:12,905  INFO PopulationImpl:181  person # 1024
2014-08-15 13:57:13,015  INFO PopulationImpl:181  person # 2048
2014-08-15 13:57:13,187  INFO PopulationImpl:181  person # 4096
2014-08-15 13:57:13,390  INFO PopulationImpl:181  person # 8192
2014-08-15 13:57:13,749  INFO PopulationImpl:181  person # 16384
2014-08-15 13:57:13,844  INFO PopulationImpl:181  person # 18846
2014-08-15 13:57:13,844  INFO ScenarioLoaderImpl:236 no person-attributes file set in config, not loading any person attributes
2014-08-15 13:57:13,860  INFO CalcLinkStats:128  resetting `count' to zero.  This info is here since we want to check when this is happening during normal simulation runs.  kai, jan'11
2014-08-15 13:57:14,391  INFO EventsManagerImpl:160 adding Event-Handler: org.matsim.analysis.VolumesAnalyzer
2014-08-15 13:57:14,391  INFO EventsManagerImpl:164   org.matsim.core.api.experimental.events.handler.LinkLeaveEventHandler
2014-08-15 13:57:14,406  INFO EventsManagerImpl:241     > org.matsim.core.api.experimental.events.LinkLeaveEvent
2014-08-15 13:57:14,406  INFO EventsManagerImpl:172 
2014-08-15 13:57:14,406  INFO EventsManagerImpl:160 adding Event-Handler: org.matsim.analysis.CalcLegTimes
2014-08-15 13:57:14,406  INFO EventsManagerImpl:164   org.matsim.core.api.experimental.events.handler.AgentDepartureEventHandler
2014-08-15 13:57:14,406  INFO EventsManagerImpl:241     > org.matsim.core.api.experimental.events.AgentDepartureEvent
2014-08-15 13:57:14,406  INFO EventsManagerImpl:164   org.matsim.core.api.experimental.events.handler.AgentArrivalEventHandler
2014-08-15 13:57:14,406  INFO EventsManagerImpl:241     > org.matsim.core.api.experimental.events.AgentArrivalEvent
2014-08-15 13:57:14,406  INFO EventsManagerImpl:164   org.matsim.core.api.experimental.events.handler.ActivityEndEventHandler
2014-08-15 13:57:14,406  INFO EventsManagerImpl:241     > org.matsim.core.api.experimental.events.ActivityEndEvent
2014-08-15 13:57:14,406  INFO EventsManagerImpl:164   org.matsim.core.api.experimental.events.handler.ActivityStartEventHandler
2014-08-15 13:57:14,406  INFO EventsManagerImpl:241     > org.matsim.core.api.experimental.events.ActivityStartEvent
2014-08-15 13:57:14,406  INFO EventsManagerImpl:172 
2014-08-15 13:57:14,438  INFO EventsManagerImpl:160 adding Event-Handler: org.matsim.analysis.LegHistogram
2014-08-15 13:57:14,438  INFO EventsManagerImpl:164   org.matsim.core.api.experimental.events.handler.AgentDepartureEventHandler
2014-08-15 13:57:14,438  INFO EventsManagerImpl:241     > org.matsim.core.api.experimental.events.AgentDepartureEvent
2014-08-15 13:57:14,438  INFO EventsManagerImpl:164   org.matsim.core.api.experimental.events.handler.AgentArrivalEventHandler
2014-08-15 13:57:14,438  INFO EventsManagerImpl:241     > org.matsim.core.api.experimental.events.AgentArrivalEvent
2014-08-15 13:57:14,438  INFO EventsManagerImpl:164   org.matsim.core.api.experimental.events.handler.AgentStuckEventHandler
2014-08-15 13:57:14,438  INFO EventsManagerImpl:241     > org.matsim.core.api.experimental.events.AgentStuckEvent
2014-08-15 13:57:14,438  INFO EventsManagerImpl:172 
2014-08-15 13:57:14,469  INFO ControlerListenerManager:124 calling notifyStartup on org.matsim.counts.CountControlerListener
2014-08-15 13:57:14,485  INFO MatsimCountsReader:77 using counts_v1-reader.
2014-08-15 13:57:14,485  INFO MatsimXmlParser:215 Trying to load http://matsim.org/files/dtd/counts_v1.xsd. In some cases (e.g. network interface up but no connection), this may take a bit.
2014-08-15 13:57:14,828  INFO ControlerListenerManager:124 calling notifyStartup on org.matsim.analysis.TravelDistanceStats
2014-08-15 13:57:14,828  INFO ControlerListenerManager:124 calling notifyStartup on org.matsim.analysis.ScoreStats
2014-08-15 13:57:14,840  INFO ControlerListenerManager:128 all ControlerStartupListeners called.
2014-08-15 13:57:14,840  INFO AbstractController:203 config dump before iterations start
2014-08-15 13:57:14,840  INFO AbstractController:207 

<?xml version="1.0" encoding="UTF-8"?>
<!DOCTYPE config SYSTEM "http://www.matsim.org/files/dtd/config_v1.dtd">
<config>

<!-- ====================================================================== -->

	<module name="TimeAllocationMutator" >

		<!-- Defines how many seconds a time mutation can maximally shift a time. -->
		<param name="mutationRange" value="7200.0" />
	</module>

<!-- ====================================================================== -->

	<module name="controler" >
		<param name="enableLinkToLinkRouting" value="false" />

		<!-- Specifies the file format for writing events. Currently supported: txt, xml. Multiple values can be specified separated by commas (','). -->
		<param name="eventsFileFormat" value="xml" />

		<param name="firstIteration" value="0" />
		<param name="lastIteration" value="100" />

		<!-- Defines which mobility simulation will be used. Currently supported: queueSimulation qsim JDEQSim multimodalQSim 
Depending on the chosen mobsim, you'll have to add additional config modules to configure the corresponding mobsim.
For 'qsim', add a module 'qsim' to the config.
For 'queueSimulation', add a module 'simulation' to the config. -->
		<param name="mobsim" value="qsim" />

		<param name="outputDirectory" value="output02/" />

		<!-- The type of routing (least cost path) algorithm used, may have the values: Dijkstra, FastDijkstra, AStarLandmarks or FastAStarLandmarks -->
		<param name="routingAlgorithmType" value="Dijkstra" />

		<!-- An identifier for the current run which is used as prefix for output files and mentioned in output xml files etc. -->
		<param name="runId" value="null" />

		<!-- Comma-separated list of visualizer output file formats. `transims', `googleearth', and `otfvis'. -->
		<param name="snapshotFormat" value="" />

		<!-- iterationNumber % writeEventsInterval == 0 defines in which iterations events are written to a file. `0' disables events writing completely. -->
		<param name="writeEventsInterval" value="10" />

		<!-- iterationNumber % writePlansInterval == 0 defines (hopefully) in which iterations plans are written to a file. `0' disables plans writing completely.  Some plans in early iterations are always written -->
		<param name="writePlansInterval" value="10" />

		<!-- iterationNumber % writeSnapshotsInterval == 0 defines in which iterations snapshots are written to a file. `0' disables snapshots writing completely -->
		<param name="writeSnapshotsInterval" value="1" />
	</module>

<!-- ====================================================================== -->

	<module name="counts" >

		<!-- Specifies over how many iterations the link volumes should be averaged that are used for the counts comparison. Use 1 or 0 to only use the link volumes of a single iteration. This values cannot be larger than the value specified for writeCountsInterval -->
		<param name="averageCountsOverIterations" value="5" />

		<!-- factor by which to re-scale the simulated values.  necessary when simulation runs with something different from 100%.  needs to be adapted manually -->
		<param name="countsScaleFactor" value="100.0" />

		<!-- distance to distanceFilterCenterNode to include counting stations. The unit of distance is the Euclidean distance implied by the coordinate system -->
		<param name="distanceFilter" value="null" />

		<!-- node id for center node of distance filter -->
		<param name="distanceFilterCenterNode" value="null" />

		<!-- input file name to counts package -->
		<param name="inputCountsFile" value="input02/counts.xml" />

		<!-- possible values: `html', `kml', `txt', `all' -->
		<param name="outputformat" value="kml" />

		<!-- Specifies how often the counts comparison should be calculated and written. -->
		<param name="writeCountsInterval" value="10" />
	</module>

<!-- ====================================================================== -->

	<module name="facilities" >
		<param name="inputFacilitiesFile" value="null" />
	</module>

<!-- ====================================================================== -->

	<module name="global" >
		<param name="coordinateSystem" value="EPSG:3006" />
		<param name="numberOfThreads" value="2" />
		<param name="randomSeed" value="4711" />
	</module>

<!-- ====================================================================== -->

	<module name="households" >
		<param name="inputFile" value="null" />
	</module>

<!-- ====================================================================== -->

	<module name="linkStats" >

		<!-- Specifies over how many iterations the link volumes should be averaged that are used for the link statistics. Use 1 or 0 to only use the link volumes of a single iteration. This values cannot be larger than the value specified for writeLinkStatsInterval -->
		<param name="averageLinkStatsOverIterations" value="5" />

		<!-- Specifies how often the link stats should be calculated and written. Use 0 to disable the generation of link stats. -->
		<param name="writeLinkStatsInterval" value="10" />
	</module>

<!-- ====================================================================== -->

	<module name="locationchoice" >
		<param name="algorithm" value="random" />
		<param name="analysisBinSize" value="20000.0" />
		<param name="analysisBoundary" value="200000.0" />
		<param name="centerNode" value="null" />
		<param name="destinationSamplePercent" value="100.0" />
		<param name="epsilonDistribution" value="gumbel" />
		<param name="epsilonScaleFactors" value="null" />
		<param name="fAttributesFileName" value="null" />
		<param name="fkValuesFile" value="null" />
		<param name="flexible_types" value="null" />
		<param name="idExclusion" value="2147483647" />
		<param name="maxDCScoreFile" value="null" />
		<param name="maxDistanceDCScore" value="-1.0" />
		<param name="maxRecursions" value="1" />
		<param name="pBetasFileName" value="null" />
		<param name="pkValuesFile" value="null" />
		<param name="planSelector" value="SelectExpBeta" />
		<param name="probChoiceSetSize" value="10" />
		<param name="radius" value="null" />
		<param name="randomSeed" value="221177" />
		<param name="recursionTravelSpeed" value="8.5" />
		<param name="recursionTravelSpeedChange" value="0.1" />
		<param name="restraintFcnExp" value="0.0" />
		<param name="restraintFcnFactor" value="0.0" />
		<param name="scaleFactor" value="1" />
		<param name="tt_approximationLevel" value="0" />
	</module>

<!-- ====================================================================== -->

	<module name="multimodal" >

		<!-- Use this, if your network is not multi modal. Links with free speeds that are lower than the specified cutoff value will be usable for walk and bike trips. -->
		<param name="createMultiModalNetwork" value="false" />

		<!-- Only used, if createMultiModalNetwork is enabled (set value in m/s). -->
		<param name="cuttoffValueForNonCarModes" value="22.22222222222222" />

		<param name="dropNonCarRoutes" value="false" />
		<param name="multiModalSimulationEnabled" value="false" />

		<!-- Use number of threads > 1 for parallel version using the specified number of threads. -->
		<param name="numberOfThreads" value="1" />

		<param name="simulatedModes" value="pt,walk,ride,bike" />
	</module>

<!-- ====================================================================== -->

	<module name="network" >
		<param name="inputChangeEventsFile" value="null" />
		<param name="inputNetworkFile" value="input02/network_cleaned_simplified.xml" />
		<param name="laneDefinitionsFile" value="null" />
		<param name="timeVariantNetwork" value="false" />
	</module>

<!-- ====================================================================== -->

	<module name="otfvis" >

		<!-- The (initial) size of the agents.  Only a range of numbers is allowed, otherwise otfvis aborts rather ungracefully, or displays no agents at all. -->
		<param name="agentSize" value="120.0" />

		<!-- coloring scheme for otfvis.  Currently (2012) allowed values: standard bvg bvg2 byId gtfs -->
		<param name="coloringScheme" value="standard" />

		<!-- If non-moving items (e.g. agents at activities, at bus stops, etc.) should be showed.  May affect all non-moving items. -->
		<param name="drawNonMovingItems" value="false" />

		<param name="drawTransitFacilities" value="true" />
		<param name="drawTransitFacilityIds" value="true" />
		<param name="leftMouseFunc" value="Zoom" />

		<!-- The (initial) width of the links of the network. Use positive floating point values. -->
		<param name="linkWidth" value="30.0" />

		<!-- Link width is proportional to `numberOfLanes' or to `capacity'. -->
		<param name="linkwidthIsProportionalTo" value="numberOfLanes" />

		<!-- URL to get WMS tiles from. For a local GeoServer instance, use http://localhost:8080/geoserver/wms?service=WMS& -->
		<param name="mapBaseURL" value="" />

		<!-- The WMS layer to display. For GeoServer and a layer called clipped in workspace mz, use mz:clipped -->
		<param name="mapLayer" value="" />

		<!-- Render everything on top of map tiles. Default: From tiles.openstreetmap.org -->
		<param name="mapOverlayMode" value="false" />

		<param name="middleMouseFunc" value="Pan" />

		<!-- Shortens a link's start and end point in the visualization. -->
		<param name="nodeOffset" value="0.0" />

		<param name="rightMouseFunc" value="Select" />
		<param name="showTeleportation" value="false" />
	</module>

<!-- ====================================================================== -->

	<module name="parallelEventHandling" >

		<!-- estimated number of events during mobsim run, useful for configuration -->
		<param name="estimatedNumberOfEvents" value="null" />

		<!-- number of threads for parallel events handler.  0 or null means parallel events handler is disabled -->
		<param name="numberOfThreads" value="null" />
	</module>

<!-- ====================================================================== -->

	<module name="planCalcScore" >

		<!-- new_score = (1-learningRate)*old_score + learningRate * score_from_mobsim.  learning rates close to zero emulate score averaging, but slow down initial convergence -->
		<param name="learningRate" value="1.0" />

		<!-- logit model scale parameter. default: 2.  Has name and default value for historical reasons (see Bryan Raney's phd thesis).  Should be in strategyConfigGroup. -->
		<param name="BrainExpBeta" value="2.0" />

		<param name="PathSizeLogitBeta" value="1.0" />

		<!-- [utils/hr] utility for arriving late (i.e. after the latest start time).  normally negative -->
		<param name="lateArrival" value="-18.0" />

		<!-- [utils/hr] utility for departing early (i.e. before the earliest end time).  Probably implemented correctly, but not tested. -->
		<param name="earlyDeparture" value="-0.0" />

		<!-- [utils/hr] marginal utility of doing an activity.  normally positive.  also the opportunity cost of time if agent is doing nothing. -->
		<param name="performing" value="6.0" />

		<!-- [utils/hr] additional marginal utility of traveling by car.  normally negative.  this comes on top of the opportunity cost of time -->
		<param name="traveling" value="-6.0" />

		<!-- [utils/hr] additional marginal utility offset of traveling by pt.  normally negative.  this comes on top of the opportunity cost of time -->
		<param name="travelingPt" value="-6.0" />

		<!-- [utils/hr] additional marginal utility offset of traveling by foot.  normally negative.  this comes on top of the opportunity cost of time.  also see marginalUtlOfDistanceWalk -->
		<param name="travelingWalk" value="-6.0" />

		<param name="travelingOther" value="-6.0" />
		<param name="travelingBike" value="-6.0" />

		<!-- [utils/hr] utility offset for waiting.  this comes on top of the opportunity cost of time.  Probably implemented correctly, but not tested. -->
		<param name="waiting" value="-0.0" />

		<!-- [utils/hr] utility offset for waiting for a pt vehicle.  this comes on top of the opportunity cost of time. Default: if not set explicitly, it is equal to traveling_pt!!! -->
		<param name="waitingPt" value="-6.0" />

		<!-- [utils/m] utility of walking per m, normally negative.  this is on top of the time (dis)utility. -->
		<param name="marginalUtlOfDistanceWalk" value="0.0" />

		<param name="marginalUtlOfDistanceOther" value="0.0" />

		<!-- [utils/unit_of_money] conversion of money (e.g. toll, distance cost) into utils -->
		<param name="marginalUtilityOfMoney" value="1.0" />

		<!-- [unit_of_money/m] conversion of car distance into money. Probably needs to be negative to work. -->
		<param name="monetaryDistanceCostRateCar" value="0.0" />

		<!-- [unit_of_money/m] conversion of pt distance into money. Probably needs to be negative to work. -->
		<param name="monetaryDistanceCostRatePt" value="0.0" />

		<!-- [utils] utility of switching a line (= transfer penalty).  Normally negative -->
		<param name="utilityOfLineSwitch" value="-1.0" />

		<!-- [utils] alternative-specific constant for car.  no guarantee that this is used anywhere. default=0 to be backwards compatible for the time being -->
		<param name="constantCar" value="0.0" />

		<!-- [utils] alternative-specific constant for walk.  no guarantee that this is used anywhere. default=0 to be backwards compatible for the time being -->
		<param name="constantWalk" value="0.0" />

		<param name="constantOther" value="0.0" />

		<!-- [utils] alternative-specific constant for bike.  no guarantee that this is used anywhere. default=0 to be backwards compatible for the time being -->
		<param name="constantBike" value="0.0" />

		<!-- [utils] alternative-specific constant for pt.  no guarantee that this is used anywhere. default=0 to be backwards compatible for the time being -->
		<param name="constantPt" value="0.0" />

		<!-- write a plans file in each iteration directory which contains what each agent actually did, and the score it received. -->
		<param name="writeExperiencedPlans" value="false" />

		<!--  ============================  -->
		<param name="activityType_0" value="home" />

		<param name="activityPriority_0" value="1.0" />
		<param name="activityTypicalDuration_0" value="12:00:00" />
		<param name="activityMinimalDuration_0" value="undefined" />
		<param name="activityOpeningTime_0" value="undefined" />
		<param name="activityLatestStartTime_0" value="undefined" />
		<param name="activityEarliestEndTime_0" value="undefined" />
		<param name="activityClosingTime_0" value="undefined" />

		<!--  ============================  -->
		<param name="activityType_1" value="work" />

		<param name="activityPriority_1" value="1.0" />
		<param name="activityTypicalDuration_1" value="08:00:00" />
		<param name="activityMinimalDuration_1" value="undefined" />
		<param name="activityOpeningTime_1" value="05:00:00" />
		<param name="activityLatestStartTime_1" value="10:30:00" />
		<param name="activityEarliestEndTime_1" value="undefined" />
		<param name="activityClosingTime_1" value="20:00:00" />
	</module>

<!-- ====================================================================== -->

	<module name="plans" >

		<!-- Path to a file containing person attributes (required file format: ObjectAttributes). -->
		<param name="inputPersonAttributesFile" value="null" />

		<param name="inputPlansFile" value="input02/plans.xml" />

		<!-- Defines how routes are stored in memory. Currently supported: LinkNetworkRoute, CompressedNetworkRoute. -->
		<param name="networkRouteType" value="LinkNetworkRoute" />
	</module>

<!-- ====================================================================== -->

	<module name="planscalcroute" >

		<!-- factor with which beeline distances (and therefore times) are multiplied in order to obtain an estimate of the network distances/times.  Default is something like 1.3 -->
		<param name="beelineDistanceFactor" value="1.3" />

		<!-- All the modes for which the router is supposed to generate network routes (like car) -->
		<param name="networkModes" value="car,ride" />

		<!-- Free-speed factor for a teleported mode based on freespeed: freespeedFactor * <freespeed car travel time>. Insert a line like this for every such mode. freespeedFactor wins over teleportedModeSpeed, if both are set (says michaz). -->
		<param name="teleportedModeFreespeedFactor_pt" value="2.0" />
	</module>

<!-- ====================================================================== -->

	<module name="ptCounts" >

		<!-- factor by which to re-scale the simulated values.  necessary when simulation runs with something different from 100%.  needs to be adapted manually -->
		<param name="countsScaleFactor" value="1.0" />

		<!-- distance to distanceFilterCenterNode to include counting stations. The unit of distance is the Euclidean distance implied by the coordinate system -->
		<param name="distanceFilter" value="null" />

		<!-- node id for center node of distance filter -->
		<param name="distanceFilterCenterNode" value="null" />

		<!-- input file containing the alighting (getting off) counts for pt -->
		<param name="inputAlightCountsFile" value="null" />

		<!-- input file containing the boarding (getting on) counts for pt -->
		<param name="inputBoardCountsFile" value="null" />

		<!-- input file containing the occupancy counts for pt -->
		<param name="inputOccupancyCountsFile" value="null" />

		<!-- possible values: `html', `kml', `txt', `all' -->
		<param name="outputformat" value="null" />

		<!-- every how many iterations (starting with 0) counts comparisons are generated -->
		<param name="ptCountsInterval" value="10" />
	</module>

<!-- ====================================================================== -->

	<module name="qsim" >
		<param name="endTime" value="24:00:00" />
		<param name="flowCapacityFactor" value="0.07" />

		<!-- decides if waiting vehicles enter the network after or before the already driving vehicles were moved. Default: false -->
		<param name="insertingWaitingVehiclesBeforeDrivingVehicles" value="false" />

		<!-- Defines which mode should be the qsim `main' (=congested) mode. Technically, this is the mode that the departure handler of the netsimengine handles.  Effective cell size, effective lane width, flow capacity factor, and storage capacity factor need to be set with diligence.  Needs to be a vehicular mode to make sense. -->
		<param name="mainMode" value="car" />

		<!-- Use number of threads > 1 for parallel version using the specified number of threads -->
		<param name="numberOfThreads" value="1" />

		<!-- Boolean. `true': stuck vehicles are removed, aborting the plan; `false': stuck vehicles are forced into the next link. `false' is probably the better choice. -->
		<param name="removeStuckVehicles" value="false" />

		<!-- `maxOfStarttimeAndEarliestActivityEnd' (default behavior) or `onlyUseStarttime' -->
		<param name="simStarttimeInterpretation" value="maxOfStarttimeAndEarliestActivityEnd" />

		<!-- snapshotStyle: `equiDist' (vehicles equidistant on link) or `queue' (vehicles queued at end of link) or `withHolesExperimental' (experimental!!) -->
		<param name="snapshotStyle" value="equiDist" />

		<param name="snapshotperiod" value="00:00:00" />
		<param name="startTime" value="00:00:00" />
		<param name="storageCapacityFactor" value="0.02" />

		<!-- time in seconds.  Time after which the frontmost vehicle on a link is called `stuck' if it does not move. -->
		<param name="stuckTime" value="10.0" />

		<param name="timeStepSize" value="00:00:01" />

		<!-- `queue' for the standard queue model, `withHolesExperimental' (experimental!!) for the queue model with holes -->
		<param name="trafficDynamics" value="queue" />

		<!-- Defines what happens if an agent wants to depart, but the specified vehicle is not available. One of: teleport, wait, exception -->
		<param name="vehicleBehavior" value="teleport" />
	</module>

<!-- ====================================================================== -->

	<module name="roadpricing" >
	</module>

<!-- ====================================================================== -->

	<module name="scenario" >

		<!-- Set this parameter to true if households should be used, false if not. -->
		<param name="useHouseholds" value="false" />

		<!-- Set this parameter to true if knowledge should be used, false if not. -->
		<param name="useKnowledge" value="true" />

		<!-- Set this parameter to true if lanes should be used, false if not. -->
		<param name="useLanes" value="false" />

		<!-- Set this parameter to true if roadpricing should be used, false if not. -->
		<param name="useRoadpricing" value="false" />

		<!-- Set this parameter to true if signal systems should be used, false if not. -->
		<param name="useSignalsystems" value="false" />

		<!-- Set this parameter to true if transit should be simulated, false if not. -->
		<param name="useTransit" value="false" />

		<!-- Set this parameter to true if vehicles should be used, false if not. -->
		<param name="useVehicles" value="false" />
	</module>

<!-- ====================================================================== -->

	<module name="signalsystems" >
		<param name="ambertimes" value="null" />
		<param name="intergreentimes" value="null" />
		<param name="signalcontrol" value="null" />
		<param name="signalgroups" value="null" />
		<param name="signalsystems" value="null" />
		<param name="useAmbertimes" value="false" />
		<param name="useIntergreentimes" value="false" />
	</module>

<!-- ====================================================================== -->

	<module name="strategy" >
		<param name="ExternalExeConfigTemplate" value="null" />
		<param name="ExternalExeTimeOut" value="3600" />
		<param name="ExternalExeTmpFileRootDir" value="null" />

		<!-- iteration after which module will be disabled.  most useful for ``innovative'' strategies (new routes, new times, ...) -->
		<param name="ModuleDisableAfterIteration_1" value="null" />

		<!-- iteration after which module will be disabled.  most useful for ``innovative'' strategies (new routes, new times, ...) -->
		<param name="ModuleDisableAfterIteration_2" value="80" />

		<!-- iteration after which module will be disabled.  most useful for ``innovative'' strategies (new routes, new times, ...) -->
		<param name="ModuleDisableAfterIteration_3" value="80" />

		<!-- path to external executable (if applicable) -->
		<param name="ModuleExePath_1" value="null" />

		<!-- path to external executable (if applicable) -->
		<param name="ModuleExePath_2" value="null" />

		<!-- path to external executable (if applicable) -->
		<param name="ModuleExePath_3" value="null" />

		<!-- probability that a strategy is applied to a given a person.  despite its name, this really is a ``weight'' -->
		<param name="ModuleProbability_1" value="0.8" />

		<!-- probability that a strategy is applied to a given a person.  despite its name, this really is a ``weight'' -->
		<param name="ModuleProbability_2" value="0.2" />

		<!-- probability that a strategy is applied to a given a person.  despite its name, this really is a ``weight'' -->
		<param name="ModuleProbability_3" value="0.2" />

		<!-- name of strategy (if not full class name, resolved in StrategyManagerConfigLoader) -->
		<param name="Module_1" value="ChangeExpBeta" />

		<!-- name of strategy (if not full class name, resolved in StrategyManagerConfigLoader) -->
		<param name="Module_2" value="ReRoute" />

		<!-- name of strategy (if not full class name, resolved in StrategyManagerConfigLoader) -->
		<param name="Module_3" value="TimeAllocationMutator" />

		<!-- maximum number of plans per agent.  ``0'' means ``infinity''.  Currently (2010), ``5'' is a good number -->
		<param name="maxAgentPlanMemorySize" value="5" />

		<!-- name of PlanSelector for plans removal.  If not full class name, resolved in StrategyManagerConfigLoader.  default is `null', which eventually calls SelectWorstPlan. This is not a good choice from a discrete choice theoretical perspective. Alternatives, however, have not been systematically tested. kai, feb'12 -->
		<param name="planSelectorForRemoval" value="null" />
	</module>

<!-- ====================================================================== -->

	<module name="subtourModeChoice" >

		<!-- Defines the chain-based modes, seperated by commas -->
		<param name="chainBasedModes" value="car,bike" />

		<!-- Defines whether car availability must be considered or not. A agent has no car only if it has no license, or never access to a car -->
		<param name="considerCarAvailability" value="false" />

		<!-- Defines all the modes available, including chain-based modes, seperated by commas -->
		<param name="modes" value="car,pt,bike,walk" />
	</module>

<!-- ====================================================================== -->

	<module name="transit" >

		<!-- Comma-separated list of transportation modes that are handled as transit. Defaults to 'pt'. -->
		<param name="transitModes" value="pt" />

		<!-- Input file containing the transit schedule to be simulated. -->
		<param name="transitScheduleFile" value="null" />

		<!-- Input file containing the vehicles used by the departures in the transit schedule. -->
		<param name="vehiclesFile" value="null" />
	</module>

<!-- ====================================================================== -->

	<module name="transitRouter" >

		<!-- additional time the router allocates when a line switch happens. Can be interpreted as a 'safety' time that agents need to safely transfer from one line to another -->
		<param name="additionalTransferTime" value="0.0" />

		<!-- step size to increase searchRadius if no stops are found -->
		<param name="extensionRadius" value="200.0" />

		<!-- maximum beeline distance between stops that agents could transfer to by walking -->
		<param name="maxBeelineWalkConnectionDistance" value="100.0" />

		<!-- the radius in which stop locations are searched, given a start or target coordinate -->
		<param name="searchRadius" value="1000.0" />
	</module>

<!-- ====================================================================== -->

	<module name="travelTimeCalculator" >

		<!-- Transport modes that will be respected by the travel time collector. 'car' is default, which includes also bussed from the pt simulation module. Use this parameter in combination with 'filterModes' = true! -->
		<param name="analyzedModes" value="car" />

		<param name="calculateLinkToLinkTravelTimes" value="false" />
		<param name="calculateLinkTravelTimes" value="true" />

		<!-- If true, link travel times from legs performed on modes not included in the 'analyzedModes' parameter are ignored. -->
		<param name="filterModes" value="false" />

		<!-- How to deal with congested time bins that have no link entry events. `optimistic' assumes free speed (too optimistic); 'experimental_LastMile' is experimental and probably too pessimistic. -->
		<param name="travelTimeAggregator" value="optimistic" />

		<!-- The size of the time bin (in sec) into which the link travel times are aggregated for the router -->
		<param name="travelTimeBinSize" value="900" />

		<param name="travelTimeCalculator" value="TravelTimeCalculatorArray" />

		<!-- How to deal with link entry times at different positions during the time bin. Currently supported: average, linearinterpolation -->
		<param name="travelTimeGetter" value="average" />
	</module>

<!-- ====================================================================== -->

	<module name="vspExperimental" >

		<!-- String: minOfDurationAndEndTime tryEndTimeThenDuration endTimeOnly. Anything besides minOfDurationAndEndTime will internally use a different (simpler) version of the TimeAllocationMutator. -->
		<param name="activityDurationInterpretation" value="minOfDurationAndEndTime" />

		<!-- REQUIRED: file with HBEFA 3.1 fleet average cold emission factors -->
		<param name="averageFleetColdEmissionFactorsFile" value="null" />

		<!-- REQUIRED: file with HBEFA 3.1 fleet average warm emission factors -->
		<param name="averageFleetWarmEmissionFactorsFile" value="null" />

		<!-- (do not use) set chainBasedModes for subTourModeChoice by Yu. E.g. "car,bike", "car" -->
		<param name="chainBasedModes" value="car" />

		<!-- OPTIONAL: file with HBEFA 3.1 detailed cold emission factors -->
		<param name="detailedColdEmissionFactorsFile" value="null" />

		<!-- OPTIONAL: file with HBEFA 3.1 detailed warm emission factors -->
		<param name="detailedWarmEmissionFactorsFile" value="null" />

		<!-- REQUIRED: mapping from input road types to HBEFA 3.1 road type strings -->
		<param name="emissionRoadTypeMappingFile" value="null" />

		<!-- definition of a vehicle for every person (who is allowed to choose a vehicle in the simulation):
 - REQUIRED: vehicle type Id must start with the respective HbefaVehicleCategory followed by `;'
 - OPTIONAL: if detailed emission calculation is switched on, vehicle type Id should aditionally contain HbefaVehicleAttributes (`Technology;SizeClasse;EmConcept'), corresponding to the strings in detailedWarmEmissionFactorsFile -->
		<param name="emissionVehicleFile" value="null" />

		<!-- (do not use) Set this filename of MZ05 daily analysis -->
		<param name="inputMZ05File" value="" />

		<!-- (do not use except of you have to) There was a problem with pt interaction scoring.  Some people solved it by overwriting the parameters of the pt interaction activity type.  Doing this now throws an Exception.  If you still insist on doing this, set the following to true. -->
		<param name="isAbleToOverwritePtInteractionParams" value="false" />

		<param name="isGeneratingBoardingDeniedEvent" value="false" />

		<!-- if an approximation of the opportunity cost of time is included into the radius calculation for location choice.`true' will be faster, but it is an approximation.  Default is `true'; `false' is available for backwards compatibility. -->
		<param name="isUsingOpportunityCostOfTimeForLocationChoice" value="true" />

		<param name="logitScaleParamForPlansRemoval" value="1." />

		<!-- changes MATSim's global time format used in output files. Can be used to enforce writing fractional seconds e.g. in output_plans.  default is `hh:mm:ss' (because of backwards compatibility). see Time.java for possible formats -->
		<param name="matsimGlobalTimeformat" value="HH:mm:ss" />

		<!-- (do not use) set the traffic mode option for subTourModeChoice by Yu -->
		<param name="modes" value="car, pt" />

		<!-- (not tested) will remove plan attributes that are presumably not used, such as activityStartTime. default=false -->
		<param name="removingUnnecessaryPlanAttributes" value="false" />

		<!-- first iteration of MSA score averaging. The matsim theory department suggests to use this together with switching of choice set innovation, but it has not been tested yet. -->
		<param name="scoreMSAStartsAtIteration" value="null" />

		<!-- if true then detailed emission factor files must be provided! -->
		<param name="usingDetailedEmissionCalculation" value="false" />

		<!-- indicates if, for routing, the opportunity cost of time should be added to the mode-specific marginal utilities of time.
		Default is true; false is possible only for backwards compatibility.
		This is only a suggestion since there is (by matsim design) no way to enforce that mental modules obey this. -->
		<param name="usingOpportunityCostOfTimeForPtRouting" value="true" />

		<!-- Options: `ignore', `warn', `abort'.  Default: either `ignore' or `warn'.
		When violating VSP defaults, this results in nothing, warnings, or aborts.  Members of VSP should use `abort' or talk to kai. -->
		<param name="vspDefaultsCheckingLevel" value="ignore" />

		<!-- if true then writes output_events in output directory.  default is `false'. Will only work when lastIteration is multiple of events writing interval -->
		<param name="writingOutputEvents" value="false" />
	</module>

<!-- ====================================================================== -->

</config>

2014-08-15 13:57:14,845  INFO AbstractController:208 Complete config dump done.
2014-08-15 13:57:14,845  INFO AbstractController:209 Checking consistency of config...
2014-08-15 13:57:14,845  INFO AbstractController:211 Checking consistency of config done.
2014-08-15 13:57:14,845  INFO EventsManagerImpl:160 adding Event-Handler: org.matsim.core.trafficmonitoring.TravelTimeCalculator
2014-08-15 13:57:14,845  INFO EventsManagerImpl:164   org.matsim.core.api.experimental.events.handler.LinkEnterEventHandler
2014-08-15 13:57:14,861  INFO EventsManagerImpl:241     > org.matsim.core.api.experimental.events.LinkEnterEvent
2014-08-15 13:57:14,861  INFO EventsManagerImpl:164   org.matsim.core.api.experimental.events.handler.LinkLeaveEventHandler
2014-08-15 13:57:14,861  INFO EventsManagerImpl:241     > org.matsim.core.api.experimental.events.LinkLeaveEvent
2014-08-15 13:57:14,861  INFO EventsManagerImpl:164   org.matsim.core.api.experimental.events.handler.AgentDepartureEventHandler
2014-08-15 13:57:14,861  INFO EventsManagerImpl:241     > org.matsim.core.api.experimental.events.AgentDepartureEvent
2014-08-15 13:57:14,861  INFO EventsManagerImpl:164   org.matsim.core.api.experimental.events.handler.AgentArrivalEventHandler
2014-08-15 13:57:14,861  INFO EventsManagerImpl:241     > org.matsim.core.api.experimental.events.AgentArrivalEvent
2014-08-15 13:57:14,861  INFO EventsManagerImpl:164   org.matsim.core.events.handler.VehicleArrivesAtFacilityEventHandler
2014-08-15 13:57:14,861  INFO EventsManagerImpl:241     > org.matsim.core.api.experimental.events.VehicleArrivesAtFacilityEvent
2014-08-15 13:57:14,861  INFO EventsManagerImpl:164   org.matsim.core.events.handler.TransitDriverStartsEventHandler
2014-08-15 13:57:14,861  INFO EventsManagerImpl:241     > org.matsim.core.api.experimental.events.TransitDriverStartsEvent
2014-08-15 13:57:14,861  INFO EventsManagerImpl:164   org.matsim.core.api.experimental.events.handler.AgentStuckEventHandler
2014-08-15 13:57:14,861  INFO EventsManagerImpl:241     > org.matsim.core.api.experimental.events.AgentStuckEvent
2014-08-15 13:57:14,861  INFO EventsManagerImpl:172 
2014-08-15 13:57:15,048  INFO NetworkImpl:489 building QuadTree for nodes: xrange(615412.5662264617,729186.364161173); yrange(6513246.242810483,6679754.241279298)
2014-08-15 13:57:15,204  INFO NetworkImpl:498 Building QuadTree took 0.172 seconds.
2014-08-15 13:57:15,423  INFO Counter:51 [PersonPrepareForSim] handled person # 1
2014-08-15 13:57:15,517  INFO Counter:51 [PersonPrepareForSim] handled person # 2
2014-08-15 13:57:15,673  INFO Counter:51 [PersonPrepareForSim] handled person # 4
2014-08-15 13:57:15,751  INFO Counter:51 [PersonPrepareForSim] handled person # 8
2014-08-15 13:57:15,845  INFO Counter:51 [PersonPrepareForSim] handled person # 16
2014-08-15 13:57:16,408  INFO Counter:51 [PersonPrepareForSim] handled person # 32
2014-08-15 13:57:17,049  INFO Counter:51 [PersonPrepareForSim] handled person # 64
2014-08-15 13:57:18,347  INFO Counter:51 [PersonPrepareForSim] handled person # 128
2014-08-15 13:57:21,442  INFO Counter:51 [PersonPrepareForSim] handled person # 256
2014-08-15 13:57:33,194  INFO Counter:51 [PersonPrepareForSim] handled person # 512
2014-08-15 13:57:51,117  INFO Counter:51 [PersonPrepareForSim] handled person # 1024
2014-08-15 13:58:32,539  INFO Counter:51 [PersonPrepareForSim] handled person # 2048
2014-08-15 13:59:52,541  INFO Counter:51 [PersonPrepareForSim] handled person # 4096
2014-08-15 14:01:34,228  INFO Counter:51 [PersonPrepareForSim] handled person # 8192
2014-08-15 14:04:22,463  INFO Counter:51 [PersonPrepareForSim] handled person # 16384
2014-08-15 14:05:38,462  INFO Counter:57 [PersonPrepareForSim] handled person # 18846
2014-08-15 14:05:38,462  INFO AbstractController:156 ###################################################
2014-08-15 14:05:38,468  INFO AbstractController:157 ### ITERATION 0 BEGINS
2014-08-15 14:05:38,468  INFO OutputDirectoryHierarchy:144 Iteration directory output02/ITERS/it.0 exists already.
2014-08-15 14:05:38,468  INFO ControlerListenerManager:159 calling notifyIterationStarts on org.matsim.core.controler.corelisteners.PlansScoring
2014-08-15 14:05:38,572  INFO EventsManagerImpl:160 adding Event-Handler: org.matsim.core.scoring.EventsToScore
2014-08-15 14:05:38,572  INFO EventsManagerImpl:164   org.matsim.core.events.handler.BasicEventHandler
2014-08-15 14:05:38,572  INFO EventsManagerImpl:241     > org.matsim.core.api.experimental.events.Event
2014-08-15 14:05:38,572  INFO EventsManagerImpl:172 
2014-08-15 14:05:38,572  INFO ControlerListenerManager:164 calling notifyIterationStarts on org.matsim.core.controler.corelisteners.LinkStatsControlerListener
2014-08-15 14:05:38,572  INFO ControlerListenerManager:164 calling notifyIterationStarts on org.matsim.core.controler.corelisteners.LegHistogramListener
2014-08-15 14:05:38,572  INFO ControlerListenerManager:167 [it.0] all ControlerIterationStartsListeners called.
2014-08-15 14:05:38,572  INFO ControlerListenerManager:247 calling notifyBeforeMobsim on org.matsim.core.controler.corelisteners.EventsHandling
2014-08-15 14:05:38,572  INFO EventsManagerImpl:195 resetting Event-Handlers
2014-08-15 14:05:38,572  INFO EventsManagerImpl:202   org.matsim.analysis.VolumesAnalyzer
2014-08-15 14:05:38,572  INFO EventsManagerImpl:202   org.matsim.core.trafficmonitoring.TravelTimeCalculator
2014-08-15 14:05:38,838  INFO EventsManagerImpl:202   org.matsim.analysis.CalcLegTimes
2014-08-15 14:05:38,838  INFO EventsManagerImpl:202   org.matsim.analysis.LegHistogram
2014-08-15 14:05:38,838  INFO EventsManagerImpl:202   org.matsim.core.scoring.EventsToScore
2014-08-15 14:05:38,916  INFO EventsManagerImpl:160 adding Event-Handler: org.matsim.core.events.algorithms.EventWriterXML
2014-08-15 14:05:38,916  INFO EventsManagerImpl:164   org.matsim.core.events.algorithms.EventWriter
2014-08-15 14:05:38,916  INFO EventsManagerImpl:164   org.matsim.core.events.handler.BasicEventHandler
2014-08-15 14:05:38,916  INFO EventsManagerImpl:241     > org.matsim.core.api.experimental.events.Event
2014-08-15 14:05:38,916  INFO EventsManagerImpl:172 
2014-08-15 14:05:38,916  INFO ControlerListenerManager:247 calling notifyBeforeMobsim on org.matsim.core.controler.corelisteners.PlansDumping
2014-08-15 14:05:38,916  INFO PlansDumping:77 dumping plans...
2014-08-15 14:05:38,947  INFO Counter:51 [PopulationWriter] dumped person # 1
2014-08-15 14:05:38,947  INFO Counter:51 [PopulationWriter] dumped person # 2
2014-08-15 14:05:38,947  INFO Counter:51 [PopulationWriter] dumped person # 4
2014-08-15 14:05:38,947  INFO Counter:51 [PopulationWriter] dumped person # 8
2014-08-15 14:05:38,947  INFO Counter:51 [PopulationWriter] dumped person # 16
2014-08-15 14:05:38,979  INFO Counter:51 [PopulationWriter] dumped person # 32
2014-08-15 14:05:38,979  INFO Counter:51 [PopulationWriter] dumped person # 64
2014-08-15 14:05:39,025  INFO Counter:51 [PopulationWriter] dumped person # 128
2014-08-15 14:05:39,072  INFO Counter:51 [PopulationWriter] dumped person # 256
2014-08-15 14:05:39,135  INFO Counter:51 [PopulationWriter] dumped person # 512
2014-08-15 14:05:39,291  INFO Counter:51 [PopulationWriter] dumped person # 1024
2014-08-15 14:05:39,635  INFO Counter:51 [PopulationWriter] dumped person # 2048
2014-08-15 14:05:39,839  INFO Counter:51 [PopulationWriter] dumped person # 4096
[...]
2014-08-15 17:04:33,868  INFO EventsManagerImpl:202   org.matsim.analysis.VolumesAnalyzer
2014-08-15 17:04:33,868  INFO EventsManagerImpl:202   org.matsim.core.trafficmonitoring.TravelTimeCalculator
2014-08-15 17:04:34,036  INFO EventsManagerImpl:202   org.matsim.analysis.CalcLegTimes
2014-08-15 17:04:34,037  INFO EventsManagerImpl:202   org.matsim.analysis.LegHistogram
2014-08-15 17:04:34,037  INFO EventsManagerImpl:202   org.matsim.core.scoring.EventsToScore
2014-08-15 17:04:34,079  INFO EventsManagerImpl:160 adding Event-Handler: org.matsim.core.events.algorithms.EventWriterXML
2014-08-15 17:04:34,079  INFO EventsManagerImpl:164   org.matsim.core.events.algorithms.EventWriter
2014-08-15 17:04:34,079  INFO EventsManagerImpl:164   org.matsim.core.events.handler.BasicEventHandler
2014-08-15 17:04:34,079  INFO EventsManagerImpl:241     > org.matsim.core.api.experimental.events.Event
2014-08-15 17:04:34,079  INFO EventsManagerImpl:172 
2014-08-15 17:04:34,079  INFO ControlerListenerManager:247 calling notifyBeforeMobsim on org.matsim.core.controler.corelisteners.PlansDumping
2014-08-15 17:04:34,080  INFO PlansDumping:77 dumping plans...
2014-08-15 17:04:34,090  INFO Counter:51 [PopulationWriter] dumped person # 1
2014-08-15 17:04:34,090  INFO Counter:51 [PopulationWriter] dumped person # 2
2014-08-15 17:04:34,091  INFO Counter:51 [PopulationWriter] dumped person # 4
2014-08-15 17:04:34,092  INFO Counter:51 [PopulationWriter] dumped person # 8
2014-08-15 17:04:34,094  INFO Counter:51 [PopulationWriter] dumped person # 16
2014-08-15 17:04:34,100  INFO Counter:51 [PopulationWriter] dumped person # 32
2014-08-15 17:04:34,108  INFO Counter:51 [PopulationWriter] dumped person # 64
2014-08-15 17:04:34,124  INFO Counter:51 [PopulationWriter] dumped person # 128
2014-08-15 17:04:34,157  INFO Counter:51 [PopulationWriter] dumped person # 256
2014-08-15 17:04:34,229  INFO Counter:51 [PopulationWriter] dumped person # 512
2014-08-15 17:04:34,370  INFO Counter:51 [PopulationWriter] dumped person # 1024
2014-08-15 17:04:34,646  INFO Counter:51 [PopulationWriter] dumped person # 2048
2014-08-15 17:04:35,209  INFO Counter:51 [PopulationWriter] dumped person # 4096
2014-08-15 17:04:36,241  INFO Counter:51 [PopulationWriter] dumped person # 8192
2014-08-15 17:04:38,364  INFO Counter:51 [PopulationWriter] dumped person # 16384
2014-08-15 17:04:39,048  INFO Counter:57 [PopulationWriter] dumped person # 18846
2014-08-15 17:04:39,048  INFO PopulationWriter:173 Population written to: output02/ITERS/it.100/100.plans.xml.gz
2014-08-15 17:04:39,048  INFO PlansDumping:79 finished plans dump.
2014-08-15 17:04:39,048  INFO ControlerListenerManager:255 [it.100] all ControlerBeforeMobsimListeners called.
2014-08-15 17:04:39,048  INFO QSim:169 Using QSim...
2014-08-15 17:04:39,239  INFO MobsimListenerManager:58 calling addQueueSimulationListener
2014-08-15 17:04:39,239  INFO MobsimListenerManager:62   assigned class org.matsim.core.mobsim.framework.listeners.MobsimListener to interface org.matsim.core.mobsim.framework.listeners.MobsimAfterSimStepListener
2014-08-15 17:04:39,239  INFO MobsimListenerManager:62   assigned class org.matsim.core.mobsim.framework.listeners.MobsimListener to interface org.matsim.core.mobsim.framework.listeners.MobsimBeforeCleanupListener
2014-08-15 17:04:39,239  INFO MobsimListenerManager:62   assigned class org.matsim.core.mobsim.framework.listeners.MobsimListener to interface org.matsim.core.mobsim.framework.listeners.MobsimInitializedListener
2014-08-15 17:04:39,239  INFO MobsimListenerManager:62   assigned class org.matsim.core.mobsim.framework.listeners.MobsimListener to interface org.matsim.core.mobsim.framework.listeners.MobsimListener
2014-08-15 17:04:39,239  INFO MobsimListenerManager:62   assigned class org.matsim.core.mobsim.framework.listeners.MobsimListener to interface org.matsim.vis.snapshotwriters.SnapshotWriterManager
2014-08-15 17:04:39,311  INFO EventsManagerImpl:153  event # 1
2014-08-15 17:04:39,311  INFO EventsManagerImpl:153  event # 2
2014-08-15 17:04:39,311  INFO QNetsimEngine:298 SIMULATION (QNetsimEngine) AT 03:06:41 : #links=0 #nodes=0
2014-08-15 17:04:39,311  INFO QSim:389 SIMULATION (NEW QSim) AT 03:06:41 : #Veh=18846 lost=0 simT=0.0s realT=0s; (s/r): 0.0
2014-08-15 17:04:39,311  INFO Gbl:48 used RAM: 825442808B = 806096kB = 787MB  free: 1074052616B = 1024MB  total: 1899495424B = 1811MB
2014-08-15 17:04:39,312  INFO EventsManagerImpl:153  event # 4
2014-08-15 17:04:39,313  INFO EventsManagerImpl:153  event # 8
2014-08-15 17:04:39,313  INFO EventsManagerImpl:153  event # 16
2014-08-15 17:04:39,313  INFO EventsManagerImpl:153  event # 32
2014-08-15 17:04:39,314  INFO QNetsimEngine:298 SIMULATION (QNetsimEngine) AT 04:00:00 : #links=2 #nodes=0
2014-08-15 17:04:39,314  INFO QSim:389 SIMULATION (NEW QSim) AT 04:00:00 : #Veh=18846 lost=0 simT=3199.0s realT=0s; (s/r): Infinity
2014-08-15 17:04:39,314  INFO Gbl:48 used RAM: 825442808B = 806096kB = 787MB  free: 1074052616B = 1024MB  total: 1899495424B = 1811MB
2014-08-15 17:04:39,314  INFO EventsManagerImpl:153  event # 64
2014-08-15 17:04:39,315  INFO EventsManagerImpl:153  event # 128
2014-08-15 17:04:39,316  INFO EventsManagerImpl:153  event # 256
2014-08-15 17:04:39,319  INFO EventsManagerImpl:153  event # 512
2014-08-15 17:04:39,325  INFO EventsManagerImpl:153  event # 1024
2014-08-15 17:04:39,335  INFO EventsManagerImpl:153  event # 2048
2014-08-15 17:04:39,357  INFO EventsManagerImpl:153  event # 4096
2014-08-15 17:04:39,406  INFO EventsManagerImpl:153  event # 8192
2014-08-15 17:04:39,516  INFO EventsManagerImpl:153  event # 16384
2014-08-15 17:04:39,765  INFO EventsManagerImpl:153  event # 32768
2014-08-15 17:04:40,334  INFO QNetsimEngine:298 SIMULATION (QNetsimEngine) AT 05:00:00 : #links=1871 #nodes=33
2014-08-15 17:04:40,334  INFO QSim:389 SIMULATION (NEW QSim) AT 05:00:00 : #Veh=18846 lost=0 simT=6799.0s realT=1s; (s/r): 6799.0
2014-08-15 17:04:40,335  INFO Gbl:48 used RAM: 911578024B = 890212kB = 869MB  free: 987917400B = 942MB  total: 1899495424B = 1811MB
2014-08-15 17:04:40,412  INFO EventsManagerImpl:153  event # 65536
2014-08-15 17:04:41,792  INFO EventsManagerImpl:153  event # 131072
2014-08-15 17:04:45,261  INFO EventsManagerImpl:153  event # 262144
2014-08-15 17:04:46,788  INFO QNetsimEngine:298 SIMULATION (QNetsimEngine) AT 06:00:00 : #links=1864 #nodes=40
2014-08-15 17:04:46,789  INFO QSim:389 SIMULATION (NEW QSim) AT 06:00:00 : #Veh=18846 lost=0 simT=10399.0s realT=7s; (s/r): 1485.5714285714287
2014-08-15 17:04:46,789  INFO Gbl:48 used RAM: 1069409584B = 1044345kB = 1019MB  free: 822221520B = 784MB  total: 1891631104B = 1804MB
2014-08-15 17:04:52,389  INFO EventsManagerImpl:153  event # 524288
2014-08-15 17:04:53,272  INFO QNetsimEngine:298 SIMULATION (QNetsimEngine) AT 07:00:00 : #links=1552 #nodes=31
2014-08-15 17:04:53,272  INFO QSim:389 SIMULATION (NEW QSim) AT 07:00:00 : #Veh=18846 lost=0 simT=13999.0s realT=14s; (s/r): 999.9285714285714
2014-08-15 17:04:53,272  INFO Gbl:48 used RAM: 1084580664B = 1059160kB = 1034MB  free: 822779080B = 784MB  total: 1907359744B = 1819MB
2014-08-15 17:04:58,414  INFO QNetsimEngine:298 SIMULATION (QNetsimEngine) AT 08:00:00 : #links=1653 #nodes=36
2014-08-15 17:04:58,415  INFO QSim:389 SIMULATION (NEW QSim) AT 08:00:00 : #Veh=18846 lost=0 simT=17599.0s realT=19s; (s/r): 926.2631578947369
2014-08-15 17:04:58,415  INFO Gbl:48 used RAM: 1076640864B = 1051407kB = 1026MB  free: 641975200B = 612MB  total: 1718616064B = 1639MB
2014-08-15 17:05:03,541  INFO QNetsimEngine:298 SIMULATION (QNetsimEngine) AT 09:00:00 : #links=1633 #nodes=30
2014-08-15 17:05:03,542  INFO QSim:389 SIMULATION (NEW QSim) AT 09:00:00 : #Veh=18846 lost=0 simT=21199.0s realT=24s; (s/r): 883.2916666666666
2014-08-15 17:05:03,542  INFO Gbl:48 used RAM: 1059507168B = 1034674kB = 1010MB  free: 841561120B = 802MB  total: 1901068288B = 1813MB
2014-08-15 17:05:04,398  INFO EventsManagerImpl:153  event # 1048576
2014-08-15 17:05:08,023  INFO QNetsimEngine:298 SIMULATION (QNetsimEngine) AT 10:00:00 : #links=1315 #nodes=21
2014-08-15 17:05:08,023  INFO QSim:389 SIMULATION (NEW QSim) AT 10:00:00 : #Veh=18846 lost=0 simT=24799.0s realT=28s; (s/r): 885.6785714285714
2014-08-15 17:05:08,023  INFO Gbl:48 used RAM: 1013115704B = 989370kB = 966MB  free: 881136840B = 840MB  total: 1894252544B = 1806MB
2014-08-15 17:05:09,202  INFO QNetsimEngine:298 SIMULATION (QNetsimEngine) AT 11:00:00 : #links=0 #nodes=0
2014-08-15 17:05:09,202  INFO QSim:389 SIMULATION (NEW QSim) AT 11:00:00 : #Veh=18846 lost=0 simT=28399.0s realT=30s; (s/r): 946.6333333333333
2014-08-15 17:05:09,202  INFO Gbl:48 used RAM: 1100337240B = 1074548kB = 1049MB  free: 793915304B = 757MB  total: 1894252544B = 1806MB
2014-08-15 17:05:09,208  INFO QNetsimEngine:298 SIMULATION (QNetsimEngine) AT 12:00:00 : #links=7 #nodes=0
2014-08-15 17:05:09,208  INFO QSim:389 SIMULATION (NEW QSim) AT 12:00:00 : #Veh=18844 lost=0 simT=31999.0s realT=30s; (s/r): 1066.6333333333334
2014-08-15 17:05:09,208  INFO Gbl:48 used RAM: 1106567216B = 1080632kB = 1055MB  free: 787685328B = 751MB  total: 1894252544B = 1806MB
2014-08-15 17:05:09,261  INFO QNetsimEngine:298 SIMULATION (QNetsimEngine) AT 13:00:00 : #links=99 #nodes=4
2014-08-15 17:05:09,261  INFO QSim:389 SIMULATION (NEW QSim) AT 13:00:00 : #Veh=18786 lost=0 simT=35599.0s realT=30s; (s/r): 1186.6333333333334
2014-08-15 17:05:09,261  INFO Gbl:48 used RAM: 1112797200B = 1086716kB = 1061MB  free: 781455344B = 745MB  total: 1894252544B = 1806MB
2014-08-15 17:05:09,875  INFO QNetsimEngine:298 SIMULATION (QNetsimEngine) AT 14:00:00 : #links=660 #nodes=9
2014-08-15 17:05:09,875  INFO QSim:389 SIMULATION (NEW QSim) AT 14:00:00 : #Veh=18331 lost=0 simT=39199.0s realT=30s; (s/r): 1306.6333333333334
2014-08-15 17:05:09,875  INFO Gbl:48 used RAM: 855869160B = 835809kB = 816MB  free: 1057782040B = 1008MB  total: 1913651200B = 1825MB
2014-08-15 17:05:12,731  INFO QNetsimEngine:298 SIMULATION (QNetsimEngine) AT 15:00:00 : #links=1597 #nodes=26
2014-08-15 17:05:12,731  INFO QSim:389 SIMULATION (NEW QSim) AT 15:00:00 : #Veh=16521 lost=0 simT=42799.0s realT=33s; (s/r): 1296.939393939394
2014-08-15 17:05:12,731  INFO Gbl:48 used RAM: 1054663600B = 1029944kB = 1005MB  free: 858987600B = 819MB  total: 1913651200B = 1825MB
2014-08-15 17:05:18,209  INFO QNetsimEngine:298 SIMULATION (QNetsimEngine) AT 16:00:00 : #links=1771 #nodes=28
2014-08-15 17:05:18,209  INFO QSim:389 SIMULATION (NEW QSim) AT 16:00:00 : #Veh=13058 lost=0 simT=46399.0s realT=39s; (s/r): 1189.7179487179487
2014-08-15 17:05:18,216  INFO Gbl:48 used RAM: 1019443880B = 995550kB = 972MB  free: 887391576B = 846MB  total: 1906835456B = 1818MB
2014-08-15 17:05:23,772  INFO QNetsimEngine:298 SIMULATION (QNetsimEngine) AT 17:00:00 : #links=1698 #nodes=39
2014-08-15 17:05:23,772  INFO QSim:389 SIMULATION (NEW QSim) AT 17:00:00 : #Veh=9492 lost=0 simT=49999.0s realT=44s; (s/r): 1136.340909090909
2014-08-15 17:05:23,772  INFO Gbl:48 used RAM: 986307944B = 963191kB = 940MB  free: 941499032B = 897MB  total: 1927806976B = 1838MB
2014-08-15 17:05:26,961  INFO EventsManagerImpl:153  event # 2097152
2014-08-15 17:05:28,571  INFO QNetsimEngine:298 SIMULATION (QNetsimEngine) AT 18:00:00 : #links=1600 #nodes=25
2014-08-15 17:05:28,571  INFO QSim:389 SIMULATION (NEW QSim) AT 18:00:00 : #Veh=6143 lost=0 simT=53599.0s realT=49s; (s/r): 1093.857142857143
2014-08-15 17:05:28,580  INFO Gbl:48 used RAM: 892405680B = 871489kB = 851MB  free: 1029109840B = 981MB  total: 1921515520B = 1832MB
2014-08-15 17:05:33,449  INFO QNetsimEngine:298 SIMULATION (QNetsimEngine) AT 19:00:00 : #links=1487 #nodes=19
2014-08-15 17:05:33,449  INFO QSim:389 SIMULATION (NEW QSim) AT 19:00:00 : #Veh=2948 lost=0 simT=57199.0s realT=54s; (s/r): 1059.2407407407406
2014-08-15 17:05:33,454  INFO Gbl:48 used RAM: 1173668928B = 1146161kB = 1119MB  free: 747846592B = 713MB  total: 1921515520B = 1832MB
2014-08-15 17:05:36,747  INFO QNetsimEngine:298 SIMULATION (QNetsimEngine) AT 20:00:00 : #links=734 #nodes=14
2014-08-15 17:05:36,747  INFO QSim:389 SIMULATION (NEW QSim) AT 20:00:00 : #Veh=420 lost=0 simT=60799.0s realT=57s; (s/r): 1066.6491228070176
2014-08-15 17:05:36,751  INFO Gbl:48 used RAM: 1013438584B = 989686kB = 966MB  free: 930097032B = 887MB  total: 1943535616B = 1853MB
2014-08-15 17:05:36,904  INFO QNetsimEngine:298 SIMULATION (QNetsimEngine) AT 21:00:00 : #links=0 #nodes=0
2014-08-15 17:05:36,904  INFO QSim:389 SIMULATION (NEW QSim) AT 21:00:00 : #Veh=10 lost=0 simT=64399.0s realT=57s; (s/r): 1129.8070175438597
2014-08-15 17:05:36,904  INFO Gbl:48 used RAM: 1029866800B = 1005729kB = 982MB  free: 913668816B = 871MB  total: 1943535616B = 1853MB
2014-08-15 17:05:37,076  INFO AbstractController:174 ### ITERATION 100 fires after mobsim event
2014-08-15 17:05:37,076  INFO ControlerListenerManager:268 calling notifyAfterMobsim on org.matsim.core.controler.corelisteners.EventsHandling
2014-08-15 17:05:37,076  INFO ControlerListenerManager:268 calling notifyAfterMobsim on org.matsim.core.controler.corelisteners.LegTimesListener
2014-08-15 17:05:37,076  INFO LegTimesListener:48 [100] average trip (probably: leg) duration is: 1082 seconds = 00:18:02
2014-08-15 17:05:37,076  INFO ControlerListenerManager:276 [it.100] all ControlerAfterMobsimListeners called.
2014-08-15 17:05:37,076  INFO AbstractController:176 ### ITERATION 100 fires scoring event
2014-08-15 17:05:37,076  INFO ControlerListenerManager:204 calling notifyScoring on org.matsim.core.controler.corelisteners.PlansScoring
2014-08-15 17:05:37,139  INFO ControlerListenerManager:215 [it.100] all ControlerScoringListeners called.
2014-08-15 17:05:37,139  INFO AbstractController:178 ### ITERATION 100 fires iteration end event
2014-08-15 17:05:37,139  INFO ControlerListenerManager:180 calling notifyIterationEnds on org.matsim.core.controler.corelisteners.EventsHandling
2014-08-15 17:05:37,139  INFO EventsManagerImpl:177 removing Event-Handler: org.matsim.core.events.algorithms.EventWriterXML
2014-08-15 17:05:37,139  INFO ControlerListenerManager:180 calling notifyIterationEnds on org.matsim.core.controler.corelisteners.PlansScoring
2014-08-15 17:05:37,139  INFO EventsManagerImpl:177 removing Event-Handler: org.matsim.core.scoring.EventsToScore
2014-08-15 17:05:37,139  INFO ControlerListenerManager:187 calling notifyIterationEnds on org.matsim.core.controler.corelisteners.LinkStatsControlerListener
2014-08-15 17:05:44,834  INFO ControlerListenerManager:187 calling notifyIterationEnds on org.matsim.counts.CountControlerListener
2014-08-15 17:05:44,850  WARN MGC:160 Assuming that coordinates are in longitude first notation, i.e. (longitude, latitude).
2014-08-15 17:05:44,850  INFO MatsimResource:95 Resource 'countsKml/countsLegend240x300.png' not found locally. May not be fatal.
2014-08-15 17:05:44,858  INFO MatsimResource:95 Resource 'matsim_logo_transparent.png' not found locally. May not be fatal.
2014-08-15 17:05:44,858  INFO MatsimResource:95 Resource 'icons/plus.png' not found locally. May not be fatal.
2014-08-15 17:05:44,858  INFO MatsimResource:95 Resource 'icons/minus.png' not found locally. May not be fatal.
2014-08-15 17:05:44,866  INFO CountSimComparisonKMLWriter:636 writing chart data to D:\Uni\Matsim\MatsimHA2\output02\ITERS\it.100\biasErrorGraphData.txt
2014-08-15 17:05:46,617  INFO ControlerListenerManager:187 calling notifyIterationEnds on org.matsim.analysis.TravelDistanceStats
2014-08-15 17:05:46,632  INFO TravelDistanceStats:142 [TravelDistanceStats] using 2 thread(s).
2014-08-15 17:05:47,149  INFO TravelDistanceStats:155 [TravelDistanceStats] all threads finished.
2014-08-15 17:05:47,149  INFO TravelDistanceStats:184 -- average of the average leg distance per plan (executed plans only): 8858.095106655624
2014-08-15 17:05:47,150  INFO TravelDistanceStats:185 -- average of the average leg distance per plan (worst plans only): 8862.62881633546
2014-08-15 17:05:47,150  INFO TravelDistanceStats:186 -- average of the average leg distance per plan (all plans): 8859.219804105998
2014-08-15 17:05:47,150  INFO TravelDistanceStats:187 -- average of the average leg distance per plan (best plans only): 8854.004158155443
2014-08-15 17:05:47,251  INFO ControlerListenerManager:187 calling notifyIterationEnds on org.matsim.analysis.ScoreStats
2014-08-15 17:05:47,267  INFO ScoreStats:182 -- avg. score of the executed plan of each agent: 135.0246891218393
2014-08-15 17:05:47,267  INFO ScoreStats:188 -- avg. score of the worst plan of each agent: 134.86777289265277
2014-08-15 17:05:47,267  INFO ScoreStats:189 -- avg. of the avg. plan score per agent: 135.0347706325962
2014-08-15 17:05:47,267  INFO ScoreStats:190 -- avg. score of the best plan of each agent: 135.18961292087505
2014-08-15 17:05:47,392  INFO ControlerListenerManager:187 calling notifyIterationEnds on org.matsim.core.controler.corelisteners.LegHistogramListener
2014-08-15 17:05:47,408  INFO LegHistogramListener:77 number of legs:	37692	100%
2014-08-15 17:05:47,408  INFO LegHistogramListener:84 number of car legs:	24494	64.9846121192826%
2014-08-15 17:05:47,408  INFO LegHistogramListener:86 (car legs include legs by pt vehicles)
2014-08-15 17:05:47,408  INFO LegHistogramListener:84 number of pt legs:	13198	35.01538788071739%
2014-08-15 17:05:48,126  INFO ControlerListenerManager:191 [it.100] all ControlerIterationEndsListeners called.
2014-08-15 17:05:48,151  INFO AbstractController:182 ### ITERATION 100 ENDS
2014-08-15 17:05:48,151  INFO AbstractController:183 ###################################################
2014-08-15 17:05:48,168  INFO ControlerListenerManager:139 calling notifyShutdown on org.matsim.core.controler.corelisteners.EventsHandling
2014-08-15 17:05:48,168  INFO ControlerListenerManager:139 calling notifyShutdown on org.matsim.core.controler.corelisteners.DumpDataAtEnd
2014-08-15 17:05:48,183  INFO Counter:51 [PopulationWriter] dumped person # 1
2014-08-15 17:05:48,183  INFO Counter:51 [PopulationWriter] dumped person # 2
2014-08-15 17:05:48,183  INFO Counter:51 [PopulationWriter] dumped person # 4
2014-08-15 17:05:48,183  INFO Counter:51 [PopulationWriter] dumped person # 8
2014-08-15 17:05:48,183  INFO Counter:51 [PopulationWriter] dumped person # 16
2014-08-15 17:05:48,199  INFO Counter:51 [PopulationWriter] dumped person # 32
2014-08-15 17:05:48,199  INFO Counter:51 [PopulationWriter] dumped person # 64
2014-08-15 17:05:48,215  INFO Counter:51 [PopulationWriter] dumped person # 128
2014-08-15 17:05:48,246  INFO Counter:51 [PopulationWriter] dumped person # 256
2014-08-15 17:05:48,340  INFO Counter:51 [PopulationWriter] dumped person # 512
2014-08-15 17:05:48,480  INFO Counter:51 [PopulationWriter] dumped person # 1024
2014-08-15 17:05:48,761  INFO Counter:51 [PopulationWriter] dumped person # 2048
2014-08-15 17:05:49,340  INFO Counter:51 [PopulationWriter] dumped person # 4096
2014-08-15 17:05:50,403  INFO Counter:51 [PopulationWriter] dumped person # 8192
2014-08-15 17:05:52,561  INFO Counter:51 [PopulationWriter] dumped person # 16384
2014-08-15 17:05:53,234  INFO Counter:57 [PopulationWriter] dumped person # 18846
2014-08-15 17:05:53,234  INFO PopulationWriter:173 Population written to: output02/output_plans.xml.gz
2014-08-15 17:05:53,234  INFO NetworkWriter:47 Writing network to file: output02/output_network.xml.gz...
2014-08-15 17:05:54,790  INFO NetworkWriter:50 done.
2014-08-15 17:05:54,805  INFO Counter:57 [FacilitiesWriter] dumped facility # 0
2014-08-15 17:05:54,806  INFO ControlerListenerManager:144 calling notifyShutdown on org.matsim.analysis.TravelDistanceStats
2014-08-15 17:05:54,808  INFO ControlerListenerManager:144 calling notifyShutdown on org.matsim.analysis.ScoreStats
2014-08-15 17:05:54,808  INFO ControlerListenerManager:148 all ControlerShutdownListeners called.
